* NGSPICE file created from mkLdpcCore.ext - technology: scmos

* Black-box entry subcircuit for NAND2X1 abstract view
.subckt NAND2X1 A B gnd Y vdd
.ends

* Black-box entry subcircuit for INVX1 abstract view
.subckt INVX1 A gnd Y vdd
.ends

* Black-box entry subcircuit for NOR2X1 abstract view
.subckt NOR2X1 A B gnd Y vdd
.ends

* Black-box entry subcircuit for OAI21X1 abstract view
.subckt OAI21X1 A B C gnd Y vdd
.ends

* Black-box entry subcircuit for CLKBUF1 abstract view
.subckt CLKBUF1 A gnd Y vdd
.ends

* Black-box entry subcircuit for NAND3X1 abstract view
.subckt NAND3X1 A B C gnd Y vdd
.ends

* Black-box entry subcircuit for FILL abstract view
.subckt FILL gnd vdd
.ends

* Black-box entry subcircuit for BUFX2 abstract view
.subckt BUFX2 A gnd Y vdd
.ends

* Black-box entry subcircuit for DFFPOSX1 abstract view
.subckt DFFPOSX1 Q CLK D gnd vdd
.ends

* Black-box entry subcircuit for XNOR2X1 abstract view
.subckt XNOR2X1 A B gnd Y vdd
.ends

* Black-box entry subcircuit for AOI21X1 abstract view
.subckt AOI21X1 A B C gnd Y vdd
.ends

* Black-box entry subcircuit for AOI22X1 abstract view
.subckt AOI22X1 A B C D gnd Y vdd
.ends

* Black-box entry subcircuit for AND2X2 abstract view
.subckt AND2X2 A B gnd Y vdd
.ends

* Black-box entry subcircuit for XOR2X1 abstract view
.subckt XOR2X1 A B gnd Y vdd
.ends

* Black-box entry subcircuit for OR2X2 abstract view
.subckt OR2X2 A B gnd Y vdd
.ends

* Black-box entry subcircuit for NOR3X1 abstract view
.subckt NOR3X1 A B C gnd Y vdd
.ends

.subckt mkLdpcCore vdd gnd CLK RST_N request_put[0] request_put[1] request_put[2]
+ request_put[3] request_put[4] request_put[5] request_put[6] EN_request_put EN_response_get
+ RDY_request_put response_get[0] response_get[1] response_get[2] response_get[3]
+ response_get[4] response_get[5] response_get[6] RDY_response_get
XNAND2X1_376 BUFX2_116/Y INVX1_426/Y gnd OAI21X1_387/B vdd NAND2X1
XINVX1_624 INVX1_624/A gnd INVX1_624/Y vdd INVX1
XNOR2X1_62 AND2X2_5/B NOR2X1_62/B gnd NOR2X1_62/Y vdd NOR2X1
XOAI21X1_226 BUFX2_14/Y INVX1_244/Y OAI21X1_226/C gnd NAND3X1_79/C vdd OAI21X1
XNAND2X1_340 INVX1_378/A BUFX2_37/Y gnd NAND2X1_340/Y vdd NAND2X1
XCLKBUF1_50 BUFX2_3/Y gnd CLKBUF1_50/Y vdd CLKBUF1
XINVX1_588 INVX1_588/A gnd INVX1_588/Y vdd INVX1
XNAND3X1_172 BUFX2_124/Y INVX1_575/Y INVX1_576/Y gnd NAND3X1_172/Y vdd NAND3X1
XOAI21X1_190 INVX1_202/Y INVX1_205/Y AOI22X1_63/C gnd OAI21X1_191/C vdd OAI21X1
XNOR2X1_26 AOI22X1_9/C INVX1_39/A gnd NOR2X1_26/Y vdd NOR2X1
XFILL_12_2_1 gnd vdd FILL
XFILL_14_0_0 gnd vdd FILL
XNOR2X1_223 gnd INVX1_572/Y gnd NOR2X1_223/Y vdd NOR2X1
XNAND2X1_304 BUFX2_26/Y INVX1_338/A gnd OAI21X1_308/B vdd NAND2X1
XNAND3X1_136 BUFX2_113/Y INVX1_449/Y INVX1_450/Y gnd NAND3X1_136/Y vdd NAND3X1
XINVX1_552 BUFX2_97/Y gnd INVX1_552/Y vdd INVX1
XCLKBUF1_14 BUFX2_3/Y gnd CLKBUF1_14/Y vdd CLKBUF1
XBUFX2_137 BUFX2_137/A gnd response_get[0] vdd BUFX2
XNOR2X1_187 gnd INVX1_488/Y gnd NOR2X1_187/Y vdd NOR2X1
XOAI21X1_154 INVX1_164/Y NAND2X1_160/Y OAI21X1_153/Y gnd OAI21X1_154/Y vdd OAI21X1
XNAND2X1_268 INVX1_308/A INVX1_331/A gnd NOR2X1_106/B vdd NAND2X1
XFILL_0_0_2 gnd vdd FILL
XBUFX2_101 BUFX2_98/A gnd INVX1_475/A vdd BUFX2
XDFFPOSX1_334 AOI22X1_167/C CLKBUF1_23/Y OAI21X1_506/Y gnd vdd DFFPOSX1
XNAND3X1_100 INVX1_582/A INVX1_323/Y INVX1_324/Y gnd NAND3X1_100/Y vdd NAND3X1
XINVX1_516 BUFX2_33/Y gnd INVX1_516/Y vdd INVX1
XOAI21X1_118 INVX1_119/Y OAI21X1_118/B NOR2X1_52/Y gnd AOI21X1_18/C vdd OAI21X1
XXNOR2X1_61 AND2X2_9/Y BUFX2_112/Y gnd XNOR2X1_61/Y vdd XNOR2X1
XNOR2X1_151 gnd INVX1_404/Y gnd NOR2X1_151/Y vdd NOR2X1
XNAND2X1_232 INVX1_247/A NAND2X1_231/Y gnd AOI22X1_75/A vdd NAND2X1
XDFFPOSX1_298 AOI22X1_149/C CLKBUF1_12/Y OAI21X1_452/Y gnd vdd DFFPOSX1
XINVX1_480 INVX1_480/A gnd INVX1_480/Y vdd INVX1
XXNOR2X1_25 INVX1_204/A INVX1_484/A gnd XNOR2X1_25/Y vdd XNOR2X1
XNOR2X1_115 gnd INVX1_320/Y gnd NOR2X1_115/Y vdd NOR2X1
XNAND2X1_196 INVX1_484/A INVX1_205/Y gnd AOI22X1_62/D vdd NAND2X1
XINVX1_444 INVX1_444/A gnd INVX1_444/Y vdd INVX1
XDFFPOSX1_262 OAI21X1_397/C CLKBUF1_10/Y OAI21X1_398/Y gnd vdd DFFPOSX1
XFILL_21_0_0 gnd vdd FILL
XFILL_1_1_0 gnd vdd FILL
XBUFX2_97 BUFX2_96/A gnd BUFX2_97/Y vdd BUFX2
XFILL_19_2_1 gnd vdd FILL
XNAND2X1_160 INVX1_160/A INVX1_163/A gnd NAND2X1_160/Y vdd NAND2X1
XDFFPOSX1_226 AOI22X1_113/C CLKBUF1_41/Y OAI21X1_344/Y gnd vdd DFFPOSX1
XINVX1_408 AND2X2_5/A gnd INVX1_408/Y vdd INVX1
XAOI21X1_58 INVX1_401/Y AOI21X1_58/B AOI21X1_58/C gnd AOI21X1_58/Y vdd AOI21X1
XBUFX2_61 BUFX2_65/A gnd BUFX2_61/Y vdd BUFX2
XNAND2X1_124 AND2X2_4/B INVX1_106/A gnd NAND2X1_124/Y vdd NAND2X1
XFILL_7_0_2 gnd vdd FILL
XAOI21X1_22 INVX1_149/Y XNOR2X1_17/Y AOI21X1_22/C gnd AOI21X1_22/Y vdd AOI21X1
XFILL_9_1 gnd vdd FILL
XDFFPOSX1_190 AOI22X1_95/C CLKBUF1_32/Y OAI21X1_290/Y gnd vdd DFFPOSX1
XDFFPOSX1_2 OR2X2_1/B CLKBUF1_5/Y AOI21X1_1/Y gnd vdd DFFPOSX1
XINVX1_372 AND2X2_3/Y gnd INVX1_372/Y vdd INVX1
XOAI21X1_551 BUFX2_10/Y INVX1_624/Y INVX1_623/Y gnd OAI21X1_551/Y vdd OAI21X1
XBUFX2_25 BUFX2_22/A gnd BUFX2_25/Y vdd BUFX2
XAOI22X1_99 AOI22X1_99/A AND2X2_77/Y AOI22X1_99/C AOI22X1_99/D gnd AOI22X1_99/Y vdd
+ AOI22X1
XDFFPOSX1_88 AND2X2_43/B CLKBUF1_24/Y AOI21X1_20/Y gnd vdd DFFPOSX1
XOAI21X1_70 INVX1_67/Y AOI22X1_22/Y AOI22X1_23/Y gnd OAI21X1_70/Y vdd OAI21X1
XNAND2X1_85 AND2X2_1/B INVX1_64/A gnd NAND2X1_86/B vdd NAND2X1
XDFFPOSX1_154 AOI22X1_77/C CLKBUF1_37/Y OAI21X1_234/Y gnd vdd DFFPOSX1
XOAI21X1_515 INVX1_554/A INVX1_582/Y INVX1_581/Y gnd OAI21X1_516/C vdd OAI21X1
XAOI22X1_156 INVX1_532/A INVX1_531/Y INVX1_533/Y NAND2X1_458/Y gnd OAI21X1_478/B vdd
+ AOI22X1
XINVX1_336 INVX1_336/A gnd INVX1_336/Y vdd INVX1
XBUFX2_3 CLK gnd BUFX2_3/Y vdd BUFX2
XAOI22X1_63 AOI22X1_63/A AND2X2_56/Y AOI22X1_63/C NOR2X1_79/Y gnd AOI22X1_63/Y vdd
+ AOI22X1
XFILL_26_2_1 gnd vdd FILL
XFILL_28_0_0 gnd vdd FILL
XDFFPOSX1_118 AOI22X1_59/C CLKBUF1_16/Y OAI21X1_179/Y gnd vdd DFFPOSX1
XFILL_6_3_1 gnd vdd FILL
XFILL_8_1_0 gnd vdd FILL
XNAND2X1_49 OR2X2_4/B NOR2X1_21/Y gnd NAND2X1_49/Y vdd NAND2X1
XOAI21X1_34 INVX1_37/Y NOR2X1_21/Y NAND2X1_51/Y gnd OAI21X1_34/Y vdd OAI21X1
XDFFPOSX1_52 INVX1_72/A CLKBUF1_26/Y AOI21X1_11/Y gnd vdd DFFPOSX1
XAOI22X1_120 INVX1_406/A INVX1_405/Y INVX1_407/Y NAND2X1_359/Y gnd OAI21X1_370/B vdd
+ AOI22X1
XOAI21X1_479 BUFX2_64/Y INVX1_540/Y INVX1_539/Y gnd OAI21X1_479/Y vdd OAI21X1
XINVX1_300 BUFX2_52/Y gnd INVX1_300/Y vdd INVX1
XNAND2X1_13 INVX1_476/A INVX1_296/A gnd NOR2X1_7/A vdd NAND2X1
XAOI22X1_27 AOI22X1_27/A AND2X2_35/Y AOI22X1_27/C NOR2X1_40/Y gnd AOI22X1_27/Y vdd
+ AOI22X1
XDFFPOSX1_16 INVX1_12/A CLKBUF1_5/Y NAND2X1_42/Y gnd vdd DFFPOSX1
XINVX1_264 BUFX2_32/Y gnd INVX1_264/Y vdd INVX1
XOAI21X1_443 BUFX2_130/Y INVX1_498/Y INVX1_497/Y gnd OAI21X1_444/C vdd OAI21X1
XNAND3X1_90 INVX1_575/A INVX1_288/Y INVX1_289/Y gnd NAND3X1_90/Y vdd NAND3X1
XINVX1_228 OR2X2_4/B gnd INVX1_228/Y vdd INVX1
XOAI21X1_407 BUFX2_114/Y INVX1_456/Y INVX1_455/Y gnd OAI21X1_407/Y vdd OAI21X1
XNAND3X1_54 INVX1_160/A INVX1_162/Y INVX1_163/Y gnd NAND3X1_54/Y vdd NAND3X1
XNAND2X1_521 INVX1_611/A NAND2X1_520/Y gnd NAND2X1_521/Y vdd NAND2X1
XNAND2X1_2 INVX1_588/A NAND2X1_2/B gnd NOR2X1_1/B vdd NAND2X1
XINVX1_74 INVX1_74/A gnd INVX1_74/Y vdd INVX1
XINVX1_192 INVX1_375/A gnd INVX1_192/Y vdd INVX1
XOAI21X1_371 BUFX2_40/Y INVX1_414/Y INVX1_413/Y gnd OAI21X1_371/Y vdd OAI21X1
XAND2X2_123 INVX1_564/A INVX1_557/A gnd NOR2X1_210/B vdd AND2X2
XNAND3X1_18 INVX1_38/Y NAND2X1_61/Y OR2X2_4/Y gnd AND2X2_26/A vdd NAND3X1
XNAND2X1_485 AND2X2_42/A INVX1_566/Y gnd OAI21X1_507/B vdd NAND2X1
XAND2X2_96 AND2X2_96/A INVX1_431/A gnd AND2X2_96/Y vdd AND2X2
XINVX1_156 INVX1_156/A gnd INVX1_156/Y vdd INVX1
XOAI21X1_335 INVX1_370/A INVX1_372/Y INVX1_371/Y gnd OAI21X1_336/C vdd OAI21X1
XINVX1_38 INVX1_38/A gnd INVX1_38/Y vdd INVX1
XNAND2X1_449 INVX1_518/A BUFX2_65/Y gnd NAND2X1_450/B vdd NAND2X1
XAND2X2_60 BUFX2_16/Y AND2X2_60/B gnd AND2X2_60/Y vdd AND2X2
XINVX1_120 BUFX2_105/Y gnd NOR2X1_53/B vdd INVX1
XOAI21X1_299 INVX1_624/A INVX1_330/Y INVX1_329/Y gnd OAI21X1_300/C vdd OAI21X1
XNAND2X1_413 INVX1_475/A INVX1_478/A gnd NAND2X1_413/Y vdd NAND2X1
XAND2X2_24 OR2X2_2/A AND2X2_24/B gnd AND2X2_24/Y vdd AND2X2
XNOR2X1_99 NOR2X1_99/A NOR2X1_99/B gnd NOR2X1_99/Y vdd NOR2X1
XOAI21X1_263 BUFX2_57/Y INVX1_286/Y OAI21X1_263/C gnd NAND3X1_91/C vdd OAI21X1
XNAND2X1_377 BUFX2_87/Y INVX1_429/Y gnd NAND2X1_377/Y vdd NAND2X1
XINVX1_625 AND2X2_21/A gnd INVX1_625/Y vdd INVX1
XNOR2X1_63 gnd INVX1_152/Y gnd NOR2X1_63/Y vdd NOR2X1
XOAI21X1_227 INVX1_244/Y INVX1_247/Y AOI22X1_75/C gnd OAI21X1_228/C vdd OAI21X1
XNAND2X1_341 INVX1_380/A NAND2X1_340/Y gnd NAND2X1_341/Y vdd NAND2X1
XCLKBUF1_51 BUFX2_4/Y gnd CLKBUF1_51/Y vdd CLKBUF1
XINVX1_589 BUFX2_12/Y gnd INVX1_589/Y vdd INVX1
XNAND3X1_173 NOR2X1_223/Y NAND3X1_172/Y NAND3X1_173/C gnd NAND3X1_173/Y vdd NAND3X1
XFILL_22_1 gnd vdd FILL
XNOR2X1_27 NOR2X1_26/Y NOR2X1_27/B gnd NOR2X1_27/Y vdd NOR2X1
XOAI21X1_191 INVX1_206/Y OAI21X1_191/B OAI21X1_191/C gnd OAI21X1_191/Y vdd OAI21X1
XFILL_14_0_1 gnd vdd FILL
XNOR2X1_224 INVX1_574/A INVX1_575/Y gnd NOR2X1_224/Y vdd NOR2X1
XFILL_12_2_2 gnd vdd FILL
XNAND2X1_305 BUFX2_117/Y INVX1_335/Y gnd NAND2X1_305/Y vdd NAND2X1
XCLKBUF1_15 BUFX2_1/Y gnd CLKBUF1_15/Y vdd CLKBUF1
XNAND3X1_137 NOR2X1_169/Y NAND3X1_136/Y NAND3X1_137/C gnd NAND3X1_137/Y vdd NAND3X1
XINVX1_553 INVX1_553/A gnd INVX1_553/Y vdd INVX1
XBUFX2_138 BUFX2_138/A gnd response_get[1] vdd BUFX2
XOAI21X1_155 INVX1_161/Y OAI21X1_155/B NOR2X1_65/Y gnd AOI21X1_24/C vdd OAI21X1
XNOR2X1_188 INVX1_490/A INVX1_491/Y gnd NOR2X1_188/Y vdd NOR2X1
XNAND2X1_269 INVX1_293/A INVX1_296/A gnd OAI21X1_271/B vdd NAND2X1
XDFFPOSX1_335 INVX1_122/A CLKBUF1_36/Y OAI21X1_508/Y gnd vdd DFFPOSX1
XBUFX2_102 BUFX2_98/A gnd INVX1_601/A vdd BUFX2
XINVX1_517 BUFX2_93/Y gnd INVX1_517/Y vdd INVX1
XNAND3X1_101 NOR2X1_115/Y NAND3X1_100/Y OAI21X1_294/Y gnd NAND3X1_101/Y vdd NAND3X1
XXNOR2X1_62 INVX1_463/A BUFX2_83/Y gnd XNOR2X1_62/Y vdd XNOR2X1
XOAI21X1_119 INVX1_123/Y AOI22X1_38/Y AOI22X1_39/Y gnd DFFPOSX1_79/D vdd OAI21X1
XNOR2X1_152 INVX1_406/A INVX1_407/Y gnd NOR2X1_152/Y vdd NOR2X1
XNAND2X1_233 INVX1_282/A INVX1_275/A gnd NOR2X1_93/A vdd NAND2X1
XINVX1_481 BUFX2_34/Y gnd INVX1_481/Y vdd INVX1
XFILL_13_3_0 gnd vdd FILL
XDFFPOSX1_299 INVX1_508/A CLKBUF1_12/Y OAI21X1_454/Y gnd vdd DFFPOSX1
XXNOR2X1_26 BUFX2_92/Y INVX1_209/A gnd XNOR2X1_26/Y vdd XNOR2X1
XNOR2X1_116 AND2X2_18/B INVX1_323/Y gnd AOI22X1_97/D vdd NOR2X1
XNAND2X1_197 AND2X2_10/B INVX1_204/A gnd NAND2X1_198/B vdd NAND2X1
XINVX1_445 INVX1_157/A gnd INVX1_445/Y vdd INVX1
XDFFPOSX1_263 INVX1_157/A CLKBUF1_15/Y OAI21X1_400/Y gnd vdd DFFPOSX1
XFILL_21_0_1 gnd vdd FILL
XFILL_1_1_1 gnd vdd FILL
XBUFX2_98 BUFX2_98/A gnd BUFX2_98/Y vdd BUFX2
XFILL_19_2_2 gnd vdd FILL
XNAND2X1_161 BUFX2_48/Y INVX1_160/Y gnd OAI21X1_155/B vdd NAND2X1
XAOI21X1_59 INVX1_408/Y AOI21X1_59/B AOI21X1_59/C gnd AOI21X1_59/Y vdd AOI21X1
XDFFPOSX1_227 AND2X2_88/B CLKBUF1_1/Y OAI21X1_346/Y gnd vdd DFFPOSX1
XINVX1_409 INVX1_409/A gnd INVX1_409/Y vdd INVX1
XBUFX2_62 BUFX2_65/A gnd BUFX2_62/Y vdd BUFX2
XNAND2X1_125 INVX1_114/A NAND2X1_124/Y gnd AOI22X1_37/A vdd NAND2X1
XINVX1_373 AND2X2_3/A gnd INVX1_373/Y vdd INVX1
XAOI21X1_23 INVX1_156/Y AOI21X1_23/B AOI21X1_23/C gnd AOI21X1_23/Y vdd AOI21X1
XDFFPOSX1_3 INVX1_16/A CLKBUF1_5/Y NAND3X1_13/Y gnd vdd DFFPOSX1
XOAI21X1_552 INVX1_624/A INVX1_622/Y OAI21X1_551/Y gnd OAI21X1_552/Y vdd OAI21X1
XDFFPOSX1_191 INVX1_319/A CLKBUF1_48/Y OAI21X1_292/Y gnd vdd DFFPOSX1
XBUFX2_26 BUFX2_22/A gnd BUFX2_26/Y vdd BUFX2
XFILL_20_3_0 gnd vdd FILL
XDFFPOSX1_155 INVX1_437/A CLKBUF1_29/Y OAI21X1_236/Y gnd vdd DFFPOSX1
XOAI21X1_71 INVX1_69/A INVX1_71/Y INVX1_70/Y gnd OAI21X1_72/C vdd OAI21X1
XDFFPOSX1_89 INVX1_133/A CLKBUF1_2/Y NAND3X1_47/Y gnd vdd DFFPOSX1
XNAND2X1_86 INVX1_65/A NAND2X1_86/B gnd AOI22X1_23/A vdd NAND2X1
XOAI21X1_516 INVX1_582/A INVX1_580/Y OAI21X1_516/C gnd NAND3X1_175/C vdd OAI21X1
XAOI22X1_157 NAND2X1_460/Y AND2X2_121/Y OAI21X1_475/C NOR2X1_206/Y gnd OAI21X1_478/C
+ vdd AOI22X1
XINVX1_337 BUFX2_117/Y gnd INVX1_337/Y vdd INVX1
XBUFX2_4 CLK gnd BUFX2_4/Y vdd BUFX2
XNAND2X1_50 INVX1_39/A NOR2X1_21/Y gnd OAI21X1_33/C vdd NAND2X1
XFILL_26_2_2 gnd vdd FILL
XFILL_28_0_1 gnd vdd FILL
XAOI22X1_64 INVX1_210/A INVX1_209/Y INVX1_211/Y AOI22X1_64/D gnd AOI22X1_64/Y vdd
+ AOI22X1
XDFFPOSX1_119 INVX1_193/A CLKBUF1_49/Y OAI21X1_181/Y gnd vdd DFFPOSX1
XAOI22X1_121 NAND2X1_361/Y AND2X2_94/Y AOI22X1_121/C NOR2X1_152/Y gnd AOI22X1_121/Y
+ vdd AOI22X1
XFILL_6_3_2 gnd vdd FILL
XFILL_8_1_1 gnd vdd FILL
XOAI21X1_35 INVX1_28/Y AND2X2_24/B NOR2X1_20/Y gnd AOI21X1_3/C vdd OAI21X1
XDFFPOSX1_53 INVX1_70/A CLKBUF1_26/Y NAND3X1_29/Y gnd vdd DFFPOSX1
XOAI21X1_480 INVX1_279/A INVX1_538/Y OAI21X1_479/Y gnd NAND3X1_163/C vdd OAI21X1
XINVX1_301 INVX1_301/A gnd INVX1_301/Y vdd INVX1
XAOI22X1_28 INVX1_84/A INVX1_83/Y INVX1_85/Y AOI22X1_28/D gnd OAI21X1_88/B vdd AOI22X1
XNAND2X1_14 INVX1_602/A INVX1_560/A gnd NOR2X1_7/B vdd NAND2X1
XDFFPOSX1_17 INVX1_13/A CLKBUF1_18/Y NAND2X1_43/Y gnd vdd DFFPOSX1
XOAI21X1_444 INVX1_498/A INVX1_496/Y OAI21X1_444/C gnd NAND3X1_151/C vdd OAI21X1
XINVX1_265 BUFX2_59/Y gnd INVX1_265/Y vdd INVX1
XNAND3X1_91 NOR2X1_104/Y NAND3X1_90/Y NAND3X1_91/C gnd NAND3X1_91/Y vdd NAND3X1
XFILL_27_3_0 gnd vdd FILL
XINVX1_229 BUFX2_34/Y gnd NOR2X1_87/B vdd INVX1
XOAI21X1_408 AND2X2_9/Y INVX1_454/Y OAI21X1_407/Y gnd OAI21X1_408/Y vdd OAI21X1
XNAND3X1_55 NOR2X1_65/Y NAND3X1_54/Y NAND3X1_55/C gnd NAND3X1_55/Y vdd NAND3X1
XNAND2X1_522 BUFX2_8/Y AND2X2_20/A gnd NAND2X1_522/Y vdd NAND2X1
XNAND2X1_3 INVX1_343/A INVX1_86/A gnd NOR2X1_2/A vdd NAND2X1
XINVX1_193 INVX1_193/A gnd INVX1_193/Y vdd INVX1
XINVX1_75 BUFX2_32/Y gnd INVX1_75/Y vdd INVX1
XOAI21X1_372 AND2X2_6/Y INVX1_412/Y OAI21X1_371/Y gnd OAI21X1_372/Y vdd OAI21X1
XNAND2X1_486 INVX1_566/A INVX1_569/Y gnd NAND2X1_486/Y vdd NAND2X1
XAND2X2_124 INVX1_564/A INVX1_550/A gnd AND2X2_124/Y vdd AND2X2
XNAND3X1_19 INVX1_39/A NAND3X1_19/B OR2X2_5/Y gnd NAND3X1_19/Y vdd NAND3X1
XAND2X2_97 AND2X2_96/A AND2X2_98/B gnd AND2X2_97/Y vdd AND2X2
XINVX1_39 INVX1_39/A gnd INVX1_39/Y vdd INVX1
XINVX1_157 INVX1_157/A gnd INVX1_157/Y vdd INVX1
XOAI21X1_336 AND2X2_3/Y INVX1_370/Y OAI21X1_336/C gnd NAND3X1_115/C vdd OAI21X1
XNAND2X1_450 INVX1_520/A NAND2X1_450/B gnd NAND2X1_450/Y vdd NAND2X1
XAND2X2_61 AND2X2_6/Y INVX1_417/A gnd AND2X2_61/Y vdd AND2X2
XINVX1_121 INVX1_121/A gnd INVX1_121/Y vdd INVX1
XOAI21X1_300 BUFX2_20/Y INVX1_328/Y OAI21X1_300/C gnd NAND3X1_103/C vdd OAI21X1
XNAND2X1_414 BUFX2_133/Y INVX1_475/Y gnd NAND2X1_414/Y vdd NAND2X1
XAND2X2_25 OR2X2_4/A OR2X2_4/B gnd AND2X2_25/Y vdd AND2X2
XOAI21X1_264 INVX1_286/Y INVX1_289/Y AOI22X1_87/C gnd OAI21X1_265/C vdd OAI21X1
XNAND2X1_378 INVX1_427/A BUFX2_116/Y gnd NAND2X1_379/B vdd NAND2X1
XNOR2X1_64 AND2X2_7/B INVX1_155/Y gnd NOR2X1_64/Y vdd NOR2X1
XINVX1_626 INVX1_626/A gnd INVX1_626/Y vdd INVX1
XOAI21X1_228 INVX1_248/Y NAND2X1_228/Y OAI21X1_228/C gnd OAI21X1_228/Y vdd OAI21X1
XNAND2X1_342 BUFX2_79/Y INVX1_387/A gnd OAI21X1_350/B vdd NAND2X1
XNAND3X1_174 INVX1_580/A INVX1_582/Y INVX1_583/Y gnd NAND3X1_175/B vdd NAND3X1
XINVX1_590 INVX1_590/A gnd INVX1_590/Y vdd INVX1
XNOR2X1_28 NOR2X1_28/A NOR2X1_28/B gnd BUFX2_44/A vdd NOR2X1
XFILL_22_2 gnd vdd FILL
XOAI21X1_192 INVX1_203/Y NAND2X1_195/Y NOR2X1_78/Y gnd AOI21X1_30/C vdd OAI21X1
XFILL_14_0_2 gnd vdd FILL
XNOR2X1_225 gnd INVX1_579/Y gnd NOR2X1_225/Y vdd NOR2X1
XNAND2X1_306 BUFX2_22/Y INVX1_338/Y gnd NAND2X1_306/Y vdd NAND2X1
XCLKBUF1_16 BUFX2_5/Y gnd CLKBUF1_16/Y vdd CLKBUF1
XBUFX2_139 BUFX2_139/A gnd response_get[2] vdd BUFX2
XNAND3X1_138 BUFX2_114/Y INVX1_456/Y INVX1_457/Y gnd NAND3X1_138/Y vdd NAND3X1
XINVX1_554 INVX1_554/A gnd INVX1_554/Y vdd INVX1
XOAI21X1_156 INVX1_165/Y AOI22X1_50/Y AOI22X1_51/Y gnd OAI21X1_156/Y vdd OAI21X1
XNOR2X1_189 gnd INVX1_495/Y gnd NOR2X1_189/Y vdd NOR2X1
XNAND2X1_270 BUFX2_100/Y INVX1_293/Y gnd OAI21X1_272/B vdd NAND2X1
XDFFPOSX1_336 AND2X2_16/A CLKBUF1_23/Y AOI21X1_82/Y gnd vdd DFFPOSX1
XBUFX2_103 BUFX2_103/A gnd INVX1_106/A vdd BUFX2
XNAND3X1_102 INVX1_624/A INVX1_330/Y INVX1_331/Y gnd NAND3X1_102/Y vdd NAND3X1
XINVX1_518 INVX1_518/A gnd INVX1_518/Y vdd INVX1
XNOR2X1_153 gnd INVX1_411/Y gnd NOR2X1_153/Y vdd NOR2X1
XXNOR2X1_63 BUFX2_132/Y BUFX2_91/Y gnd XNOR2X1_63/Y vdd XNOR2X1
XOAI21X1_120 INVX1_125/A NOR2X1_56/B INVX1_126/Y gnd OAI21X1_121/C vdd OAI21X1
XFILL_15_1_0 gnd vdd FILL
XNAND2X1_234 NOR2X1_99/A INVX1_289/A gnd NOR2X1_93/B vdd NAND2X1
XINVX1_482 BUFX2_134/Y gnd INVX1_482/Y vdd INVX1
XFILL_13_3_1 gnd vdd FILL
XDFFPOSX1_300 INVX1_506/A CLKBUF1_3/Y AOI21X1_73/Y gnd vdd DFFPOSX1
XXNOR2X1_27 INVX1_209/A BUFX2_55/Y gnd AOI21X1_32/B vdd XNOR2X1
XNAND2X1_198 INVX1_205/A NAND2X1_198/B gnd AOI22X1_63/A vdd NAND2X1
XNOR2X1_117 gnd INVX1_327/Y gnd NOR2X1_117/Y vdd NOR2X1
XDFFPOSX1_264 AND2X2_7/A CLKBUF1_10/Y AOI21X1_64/Y gnd vdd DFFPOSX1
XINVX1_446 BUFX2_31/Y gnd INVX1_446/Y vdd INVX1
XFILL_21_0_2 gnd vdd FILL
XFILL_1_1_2 gnd vdd FILL
XBUFX2_99 BUFX2_98/A gnd BUFX2_99/Y vdd BUFX2
XNAND2X1_162 INVX1_160/A INVX1_163/Y gnd AOI22X1_50/D vdd NAND2X1
XXOR2X1_1 OR2X2_5/A OR2X2_3/B gnd XOR2X1_1/Y vdd XOR2X1
XINVX1_410 AND2X2_47/B gnd INVX1_410/Y vdd INVX1
XAOI21X1_60 INVX1_415/Y AOI21X1_60/B AOI21X1_60/C gnd AOI21X1_60/Y vdd AOI21X1
XDFFPOSX1_228 INVX1_380/A CLKBUF1_19/Y AOI21X1_55/Y gnd vdd DFFPOSX1
XBUFX2_63 BUFX2_65/A gnd BUFX2_63/Y vdd BUFX2
XNAND2X1_126 AND2X2_42/A INVX1_121/A gnd OAI21X1_117/B vdd NAND2X1
XINVX1_374 AND2X2_86/B gnd INVX1_374/Y vdd INVX1
XAOI21X1_24 INVX1_163/Y XNOR2X1_19/Y AOI21X1_24/C gnd AOI21X1_24/Y vdd AOI21X1
XDFFPOSX1_4 INVX1_18/A CLKBUF1_18/Y OAI21X1_10/Y gnd vdd DFFPOSX1
XOAI21X1_553 INVX1_622/Y INVX1_625/Y AOI22X1_183/C gnd OAI21X1_553/Y vdd OAI21X1
XDFFPOSX1_192 INVX1_317/A CLKBUF1_44/Y AOI21X1_46/Y gnd vdd DFFPOSX1
XBUFX2_27 RST_N gnd INVX1_96/A vdd BUFX2
XFILL_22_1_0 gnd vdd FILL
XFILL_2_2_0 gnd vdd FILL
XNAND2X1_87 INVX1_69/A INVX1_72/A gnd NAND2X1_87/Y vdd NAND2X1
XFILL_20_3_1 gnd vdd FILL
XDFFPOSX1_90 AOI22X1_45/C CLKBUF1_8/Y OAI21X1_135/Y gnd vdd DFFPOSX1
XDFFPOSX1_156 INVX1_254/A CLKBUF1_37/Y AOI21X1_37/Y gnd vdd DFFPOSX1
XOAI21X1_72 BUFX2_43/Y INVX1_69/Y OAI21X1_72/C gnd OAI21X1_72/Y vdd OAI21X1
XBUFX2_5 CLK gnd BUFX2_5/Y vdd BUFX2
XAOI22X1_158 INVX1_539/A INVX1_538/Y INVX1_540/Y NAND2X1_463/Y gnd OAI21X1_484/B vdd
+ AOI22X1
XINVX1_338 INVX1_338/A gnd INVX1_338/Y vdd INVX1
XOAI21X1_517 INVX1_580/Y INVX1_583/Y OAI21X1_517/C gnd OAI21X1_518/C vdd OAI21X1
XFILL_28_0_2 gnd vdd FILL
XFILL_8_1_2 gnd vdd FILL
XNAND2X1_51 INVX1_38/A NOR2X1_21/Y gnd NAND2X1_51/Y vdd NAND2X1
XOAI21X1_36 NOR2X1_22/Y AOI21X1_4/Y BUFX2_137/A gnd NAND2X1_53/A vdd OAI21X1
XAOI22X1_65 AOI22X1_65/A AND2X2_58/Y AOI22X1_65/C NOR2X1_82/Y gnd AOI22X1_65/Y vdd
+ AOI22X1
XDFFPOSX1_120 INVX1_191/A CLKBUF1_49/Y AOI21X1_28/Y gnd vdd DFFPOSX1
XAOI22X1_122 INVX1_413/A INVX1_412/Y INVX1_414/Y NAND2X1_364/Y gnd OAI21X1_376/B vdd
+ AOI22X1
XOAI21X1_481 INVX1_538/Y INVX1_541/Y AOI22X1_159/C gnd OAI21X1_482/C vdd OAI21X1
XDFFPOSX1_54 AOI22X1_27/C CLKBUF1_51/Y OAI21X1_80/Y gnd vdd DFFPOSX1
XINVX1_302 INVX1_293/A gnd INVX1_302/Y vdd INVX1
XAOI22X1_29 AOI22X1_29/A AND2X2_37/Y OAI21X1_85/C NOR2X1_43/Y gnd OAI21X1_88/C vdd
+ AOI22X1
XDFFPOSX1_18 OR2X2_2/B CLKBUF1_28/Y AOI21X1_3/Y gnd vdd DFFPOSX1
XNAND2X1_15 INVX1_133/A INVX1_91/A gnd NOR2X1_8/A vdd NAND2X1
XOAI21X1_445 INVX1_496/Y INVX1_499/Y OAI21X1_445/C gnd OAI21X1_445/Y vdd OAI21X1
XINVX1_266 NOR2X1_99/A gnd INVX1_266/Y vdd INVX1
XFILL_13_1 gnd vdd FILL
XNAND3X1_92 INVX1_293/A INVX1_295/Y INVX1_296/Y gnd NAND3X1_92/Y vdd NAND3X1
XFILL_27_3_1 gnd vdd FILL
XNAND3X1_56 INVX1_167/A INVX1_169/Y INVX1_170/Y gnd NAND3X1_56/Y vdd NAND3X1
XINVX1_230 AND2X2_6/Y gnd INVX1_230/Y vdd INVX1
XOAI21X1_409 INVX1_454/Y INVX1_457/Y OAI21X1_409/C gnd OAI21X1_410/C vdd OAI21X1
XFILL_9_2_0 gnd vdd FILL
XNAND2X1_523 INVX1_160/A INVX1_615/Y gnd OAI21X1_549/B vdd NAND2X1
XNAND2X1_4 NAND2X1_4/A INVX1_378/A gnd NOR2X1_2/B vdd NAND2X1
XINVX1_194 BUFX2_31/Y gnd INVX1_194/Y vdd INVX1
XOAI21X1_373 INVX1_412/Y INVX1_415/Y OAI21X1_373/C gnd OAI21X1_374/C vdd OAI21X1
XAND2X2_125 INVX1_557/A INVX1_550/A gnd AND2X2_125/Y vdd AND2X2
XINVX1_76 INVX1_76/A gnd INVX1_76/Y vdd INVX1
XNAND2X1_487 INVX1_567/A AND2X2_42/A gnd NAND2X1_488/B vdd NAND2X1
XNAND3X1_20 INVX1_41/A INVX1_43/Y INVX1_44/Y gnd NAND3X1_21/B vdd NAND3X1
XAND2X2_98 INVX1_431/A AND2X2_98/B gnd AND2X2_98/Y vdd AND2X2
XINVX1_40 INVX1_89/A gnd INVX1_40/Y vdd INVX1
XOAI21X1_337 INVX1_370/Y INVX1_373/Y OAI21X1_337/C gnd OAI21X1_338/C vdd OAI21X1
XINVX1_158 INVX1_158/A gnd INVX1_158/Y vdd INVX1
XNAND2X1_451 BUFX2_63/Y AND2X2_13/A gnd NAND2X1_451/Y vdd NAND2X1
XAND2X2_62 INVX1_237/A INVX1_241/A gnd AND2X2_62/Y vdd AND2X2
XINVX1_122 INVX1_122/A gnd INVX1_122/Y vdd INVX1
XNAND2X1_415 INVX1_475/A INVX1_478/Y gnd AOI22X1_140/D vdd NAND2X1
XOAI21X1_301 INVX1_328/Y INVX1_331/Y AOI22X1_99/C gnd OAI21X1_302/C vdd OAI21X1
XAND2X2_26 AND2X2_26/A AND2X2_26/B gnd AND2X2_26/Y vdd AND2X2
XOAI21X1_265 INVX1_290/Y OAI21X1_265/B OAI21X1_265/C gnd OAI21X1_265/Y vdd OAI21X1
XNAND2X1_379 INVX1_429/A NAND2X1_379/B gnd NAND2X1_379/Y vdd NAND2X1
XNOR2X1_65 gnd NOR2X1_65/B gnd NOR2X1_65/Y vdd NOR2X1
XINVX1_627 INVX1_627/A gnd INVX1_627/Y vdd INVX1
XOAI21X1_229 INVX1_245/Y OAI21X1_229/B NOR2X1_91/Y gnd AOI21X1_36/C vdd OAI21X1
XNAND2X1_343 BUFX2_37/Y INVX1_384/Y gnd OAI21X1_351/B vdd NAND2X1
XNAND3X1_175 NOR2X1_225/Y NAND3X1_175/B NAND3X1_175/C gnd NAND3X1_175/Y vdd NAND3X1
XINVX1_591 INVX1_46/A gnd INVX1_591/Y vdd INVX1
XOAI21X1_193 INVX1_207/Y AOI22X1_62/Y AOI22X1_63/Y gnd OAI21X1_193/Y vdd OAI21X1
XNOR2X1_29 gnd INVX1_40/Y gnd NOR2X1_29/Y vdd NOR2X1
XNAND2X1_307 INVX1_336/A BUFX2_117/Y gnd NAND2X1_307/Y vdd NAND2X1
XNOR2X1_226 INVX1_581/A INVX1_582/Y gnd NOR2X1_226/Y vdd NOR2X1
XNAND3X1_139 NOR2X1_171/Y NAND3X1_138/Y OAI21X1_408/Y gnd NAND3X1_139/Y vdd NAND3X1
XCLKBUF1_17 BUFX2_2/Y gnd CLKBUF1_17/Y vdd CLKBUF1
XINVX1_555 INVX1_555/A gnd INVX1_555/Y vdd INVX1
XBUFX2_140 BUFX2_140/A gnd response_get[3] vdd BUFX2
XOAI21X1_157 INVX1_167/A INVX1_169/Y INVX1_168/Y gnd OAI21X1_157/Y vdd OAI21X1
XNOR2X1_190 INVX1_497/A INVX1_498/Y gnd NOR2X1_190/Y vdd NOR2X1
XNAND2X1_271 INVX1_293/A INVX1_296/Y gnd AOI22X1_88/D vdd NAND2X1
XDFFPOSX1_337 INVX1_567/A CLKBUF1_36/Y NAND3X1_171/Y gnd vdd DFFPOSX1
XNAND3X1_103 NOR2X1_117/Y NAND3X1_102/Y NAND3X1_103/C gnd NAND3X1_103/Y vdd NAND3X1
XINVX1_519 BUFX2_65/Y gnd INVX1_519/Y vdd INVX1
XBUFX2_104 BUFX2_103/A gnd INVX1_97/A vdd BUFX2
XNOR2X1_154 INVX1_413/A INVX1_414/Y gnd NOR2X1_154/Y vdd NOR2X1
XXNOR2X1_64 BUFX2_133/Y BUFX2_98/Y gnd XNOR2X1_64/Y vdd XNOR2X1
XOAI21X1_121 BUFX2_82/Y INVX1_125/Y OAI21X1_121/C gnd NAND3X1_45/C vdd OAI21X1
XNAND2X1_235 INVX1_251/A INVX1_254/A gnd NAND2X1_235/Y vdd NAND2X1
XFILL_15_1_1 gnd vdd FILL
XINVX1_483 INVX1_483/A gnd INVX1_483/Y vdd INVX1
XFILL_13_3_2 gnd vdd FILL
XDFFPOSX1_301 NAND2X1_2/B CLKBUF1_12/Y NAND3X1_153/Y gnd vdd DFFPOSX1
XXNOR2X1_28 BUFX2_67/Y BUFX2_16/Y gnd XNOR2X1_28/Y vdd XNOR2X1
XNAND2X1_199 INVX1_240/A INVX1_233/A gnd NOR2X1_80/A vdd NAND2X1
XNOR2X1_118 AND2X2_21/B INVX1_330/Y gnd AOI22X1_99/D vdd NOR2X1
XDFFPOSX1_265 INVX1_441/A CLKBUF1_10/Y NAND3X1_135/Y gnd vdd DFFPOSX1
XINVX1_447 BUFX2_113/Y gnd INVX1_447/Y vdd INVX1
XNAND2X1_163 INVX1_161/A BUFX2_48/Y gnd NAND2X1_163/Y vdd NAND2X1
XINVX1_411 BUFX2_28/Y gnd INVX1_411/Y vdd INVX1
XAOI21X1_61 INVX1_422/Y XNOR2X1_56/Y AOI21X1_61/C gnd AOI21X1_61/Y vdd AOI21X1
XDFFPOSX1_229 INVX1_378/A CLKBUF1_1/Y NAND3X1_117/Y gnd vdd DFFPOSX1
XBUFX2_64 BUFX2_65/A gnd BUFX2_64/Y vdd BUFX2
XNAND2X1_127 BUFX2_105/Y INVX1_118/Y gnd OAI21X1_118/B vdd NAND2X1
XDFFPOSX1_5 INVX1_20/A CLKBUF1_12/Y DFFPOSX1_5/D gnd vdd DFFPOSX1
XDFFPOSX1_193 AND2X2_12/B CLKBUF1_40/Y NAND3X1_99/Y gnd vdd DFFPOSX1
XAOI21X1_25 INVX1_170/Y AOI21X1_25/B AOI21X1_25/C gnd AOI21X1_25/Y vdd AOI21X1
XINVX1_375 INVX1_375/A gnd INVX1_375/Y vdd INVX1
XOAI21X1_554 INVX1_626/Y NAND2X1_527/Y OAI21X1_553/Y gnd OAI21X1_554/Y vdd OAI21X1
XFILL_4_0_0 gnd vdd FILL
XBUFX2_28 RST_N gnd BUFX2_28/Y vdd BUFX2
XFILL_22_1_1 gnd vdd FILL
XFILL_20_3_2 gnd vdd FILL
XFILL_2_2_1 gnd vdd FILL
XNAND2X1_88 BUFX2_43/Y INVX1_69/Y gnd OAI21X1_75/B vdd NAND2X1
XDFFPOSX1_91 OR2X2_3/B CLKBUF1_8/Y OAI21X1_137/Y gnd vdd DFFPOSX1
XDFFPOSX1_157 NOR2X1_95/A CLKBUF1_13/Y NAND3X1_81/Y gnd vdd DFFPOSX1
XAOI22X1_159 NAND2X1_465/Y AND2X2_122/Y AOI22X1_159/C NOR2X1_208/Y gnd OAI21X1_484/C
+ vdd AOI22X1
XOAI21X1_73 INVX1_69/Y INVX1_72/Y AOI22X1_25/C gnd OAI21X1_73/Y vdd OAI21X1
XBUFX2_6 CLK gnd BUFX2_6/Y vdd BUFX2
XINVX1_339 INVX1_46/A gnd INVX1_339/Y vdd INVX1
XOAI21X1_518 INVX1_584/Y OAI21X1_518/B OAI21X1_518/C gnd OAI21X1_518/Y vdd OAI21X1
XAOI22X1_66 INVX1_217/A INVX1_216/Y INVX1_218/Y AOI22X1_66/D gnd AOI22X1_66/Y vdd
+ AOI22X1
XOAI21X1_37 INVX1_27/Y OR2X2_2/B OAI21X1_37/C gnd AOI22X1_9/D vdd OAI21X1
XNAND2X1_52 EN_response_get INVX1_27/Y gnd AND2X2_24/B vdd NAND2X1
XDFFPOSX1_55 INVX1_81/A CLKBUF1_26/Y OAI21X1_82/Y gnd vdd DFFPOSX1
XDFFPOSX1_121 AND2X2_3/B CLKBUF1_16/Y NAND3X1_63/Y gnd vdd DFFPOSX1
XAOI22X1_123 AOI22X1_123/A AND2X2_95/Y OAI21X1_373/C NOR2X1_154/Y gnd OAI21X1_376/C
+ vdd AOI22X1
XINVX1_303 AND2X2_71/B gnd INVX1_303/Y vdd INVX1
XOAI21X1_482 INVX1_542/Y OAI21X1_482/B OAI21X1_482/C gnd OAI21X1_482/Y vdd OAI21X1
XAOI22X1_30 INVX1_91/A INVX1_90/Y INVX1_92/Y AOI22X1_30/D gnd OAI21X1_94/B vdd AOI22X1
XDFFPOSX1_19 INVX1_28/A CLKBUF1_28/Y NAND3X1_15/Y gnd vdd DFFPOSX1
XNAND2X1_16 INVX1_217/A NOR2X1_71/A gnd NOR2X1_8/B vdd NAND2X1
XOAI21X1_446 INVX1_500/Y OAI21X1_446/B OAI21X1_445/Y gnd OAI21X1_446/Y vdd OAI21X1
XINVX1_267 BUFX2_68/Y gnd NOR2X1_99/B vdd INVX1
XFILL_13_2 gnd vdd FILL
XNAND3X1_93 NAND3X1_93/A NAND3X1_92/Y NAND3X1_93/C gnd NAND3X1_93/Y vdd NAND3X1
XINVX1_231 AND2X2_6/B gnd INVX1_231/Y vdd INVX1
XFILL_9_2_1 gnd vdd FILL
XFILL_27_3_2 gnd vdd FILL
XNAND3X1_57 NOR2X1_68/Y NAND3X1_56/Y NAND3X1_57/C gnd NAND3X1_57/Y vdd NAND3X1
XOAI21X1_410 INVX1_458/Y OAI21X1_410/B OAI21X1_410/C gnd OAI21X1_410/Y vdd OAI21X1
XNAND2X1_524 BUFX2_8/Y INVX1_618/Y gnd AOI22X1_180/D vdd NAND2X1
XNAND2X1_5 INVX1_385/A NAND2X1_5/B gnd NOR2X1_3/A vdd NAND2X1
XINVX1_77 INVX1_77/A gnd INVX1_77/Y vdd INVX1
XINVX1_195 AND2X2_8/Y gnd INVX1_195/Y vdd INVX1
XOAI21X1_374 INVX1_416/Y OAI21X1_374/B OAI21X1_374/C gnd OAI21X1_374/Y vdd OAI21X1
XAND2X2_126 BUFX2_75/Y INVX1_88/A gnd AND2X2_126/Y vdd AND2X2
XNAND2X1_488 AND2X2_16/A NAND2X1_488/B gnd AOI22X1_167/A vdd NAND2X1
XNAND3X1_21 NOR2X1_29/Y NAND3X1_21/B OAI21X1_47/Y gnd NAND3X1_21/Y vdd NAND3X1
XAND2X2_99 BUFX2_79/Y AND2X2_99/B gnd AND2X2_99/Y vdd AND2X2
XINVX1_41 INVX1_41/A gnd INVX1_41/Y vdd INVX1
XOAI21X1_338 INVX1_374/Y NAND2X1_329/Y OAI21X1_338/C gnd OAI21X1_338/Y vdd OAI21X1
XINVX1_159 BUFX2_35/Y gnd NOR2X1_65/B vdd INVX1
XNAND2X1_452 INVX1_69/A INVX1_524/Y gnd OAI21X1_471/B vdd NAND2X1
XAND2X2_63 INVX1_244/A AND2X2_63/B gnd AND2X2_63/Y vdd AND2X2
XINVX1_123 INVX1_123/A gnd INVX1_123/Y vdd INVX1
XOAI21X1_302 INVX1_332/Y NAND2X1_296/Y OAI21X1_302/C gnd OAI21X1_302/Y vdd OAI21X1
XNAND2X1_416 INVX1_476/A BUFX2_133/Y gnd NAND2X1_417/B vdd NAND2X1
XAND2X2_27 OR2X2_5/A OR2X2_4/B gnd AND2X2_27/Y vdd AND2X2
XOAI21X1_266 INVX1_287/Y NAND2X1_263/Y NOR2X1_104/Y gnd AOI21X1_42/C vdd OAI21X1
XNAND2X1_380 BUFX2_97/Y INVX1_436/A gnd NAND2X1_380/Y vdd NAND2X1
XNOR2X1_66 INVX1_161/A INVX1_162/Y gnd NOR2X1_66/Y vdd NOR2X1
XOAI21X1_230 INVX1_249/Y AOI22X1_74/Y AOI22X1_75/Y gnd OAI21X1_230/Y vdd OAI21X1
XNAND2X1_344 BUFX2_81/Y INVX1_387/Y gnd AOI22X1_114/D vdd NAND2X1
XNAND3X1_176 BUFX2_24/Y INVX1_589/Y INVX1_590/Y gnd NAND3X1_176/Y vdd NAND3X1
XINVX1_592 INVX1_592/A gnd INVX1_592/Y vdd INVX1
XNOR2X1_30 INVX1_42/A INVX1_43/Y gnd NOR2X1_30/Y vdd NOR2X1
XOAI21X1_194 INVX1_209/A INVX1_211/Y INVX1_210/Y gnd OAI21X1_195/C vdd OAI21X1
XNAND2X1_308 INVX1_338/A NAND2X1_307/Y gnd AOI22X1_101/A vdd NAND2X1
XNOR2X1_227 INVX1_606/A INVX1_599/A gnd NOR2X1_227/Y vdd NOR2X1
XNAND3X1_140 BUFX2_83/Y INVX1_463/Y INVX1_464/Y gnd NAND3X1_140/Y vdd NAND3X1
XBUFX2_141 BUFX2_141/A gnd response_get[4] vdd BUFX2
XINVX1_556 INVX1_437/A gnd INVX1_556/Y vdd INVX1
XCLKBUF1_18 BUFX2_4/Y gnd CLKBUF1_18/Y vdd CLKBUF1
XOAI21X1_158 BUFX2_85/Y INVX1_167/Y OAI21X1_157/Y gnd NAND3X1_57/C vdd OAI21X1
XNOR2X1_191 INVX1_522/A INVX1_515/A gnd NOR2X1_191/Y vdd NOR2X1
XNAND2X1_272 INVX1_294/A BUFX2_100/Y gnd NAND2X1_273/B vdd NAND2X1
XBUFX2_105 BUFX2_103/A gnd BUFX2_105/Y vdd BUFX2
XINVX1_520 INVX1_520/A gnd INVX1_520/Y vdd INVX1
XNAND3X1_104 BUFX2_22/Y INVX1_337/Y INVX1_338/Y gnd NAND3X1_104/Y vdd NAND3X1
XDFFPOSX1_338 AOI22X1_169/C CLKBUF1_38/Y OAI21X1_512/Y gnd vdd DFFPOSX1
XXNOR2X1_65 INVX1_484/A BUFX2_134/Y gnd AOI21X1_70/B vdd XNOR2X1
XOAI21X1_122 INVX1_125/Y INVX1_128/Y AOI22X1_41/C gnd OAI21X1_123/C vdd OAI21X1
XNOR2X1_155 AND2X2_96/A INVX1_431/A gnd NOR2X1_156/A vdd NOR2X1
XNAND2X1_236 BUFX2_95/Y INVX1_251/Y gnd NAND2X1_236/Y vdd NAND2X1
XFILL_15_1_2 gnd vdd FILL
XDFFPOSX1_302 AOI22X1_151/C CLKBUF1_5/Y OAI21X1_458/Y gnd vdd DFFPOSX1
XINVX1_484 INVX1_484/A gnd INVX1_484/Y vdd INVX1
XXNOR2X1_29 BUFX2_14/Y AND2X2_6/Y gnd XNOR2X1_29/Y vdd XNOR2X1
XNAND2X1_200 INVX1_224/A INVX1_247/A gnd NOR2X1_80/B vdd NAND2X1
XNOR2X1_119 INVX1_354/A AND2X2_80/A gnd NOR2X1_119/Y vdd NOR2X1
XDFFPOSX1_266 AOI22X1_133/C CLKBUF1_45/Y OAI21X1_404/Y gnd vdd DFFPOSX1
XINVX1_448 INVX1_448/A gnd INVX1_448/Y vdd INVX1
XNAND2X1_164 INVX1_163/A NAND2X1_163/Y gnd AOI22X1_51/A vdd NAND2X1
XFILL_26_1 gnd vdd FILL
XAOI21X1_62 INVX1_429/Y AOI21X1_62/B AOI21X1_62/C gnd AOI21X1_62/Y vdd AOI21X1
XINVX1_412 BUFX2_40/Y gnd INVX1_412/Y vdd INVX1
XDFFPOSX1_230 OAI21X1_349/C CLKBUF1_41/Y OAI21X1_350/Y gnd vdd DFFPOSX1
XFILL_16_2_0 gnd vdd FILL
XBUFX2_65 BUFX2_65/A gnd BUFX2_65/Y vdd BUFX2
XNAND2X1_128 AND2X2_42/A INVX1_121/Y gnd AOI22X1_38/D vdd NAND2X1
XAOI21X1_26 INVX1_177/Y AOI21X1_26/B AOI21X1_26/C gnd AOI21X1_26/Y vdd AOI21X1
XDFFPOSX1_6 INVX1_21/A CLKBUF1_18/Y OAI21X1_12/Y gnd vdd DFFPOSX1
XDFFPOSX1_194 AOI22X1_97/C CLKBUF1_7/Y OAI21X1_296/Y gnd vdd DFFPOSX1
XINVX1_376 INVX1_96/A gnd INVX1_376/Y vdd INVX1
XOAI21X1_555 INVX1_623/Y NAND2X1_528/Y NOR2X1_243/Y gnd AOI21X1_90/C vdd OAI21X1
XFILL_4_0_1 gnd vdd FILL
XBUFX2_29 RST_N gnd INVX1_89/A vdd BUFX2
XFILL_22_1_2 gnd vdd FILL
XFILL_2_2_2 gnd vdd FILL
XOAI21X1_74 INVX1_73/Y NAND2X1_87/Y OAI21X1_73/Y gnd OAI21X1_74/Y vdd OAI21X1