* XSpice netlist created from SPICE and liberty sources by spi2xspice.py
*SPICE netlist created from BLIF module mkLdpcCore by blif2BSpice
.subckt mkLdpcCore a_vdd a_gnd a_CLK a_RST_N a_request_put_0_ a_request_put_1_ a_request_put_2_ a_request_put_3_ a_request_put_4_ a_request_put_5_ a_request_put_6_ a_EN_request_put a_EN_response_get a_RDY_request_put a_response_get_0_ a_response_get_1_ a_response_get_2_ a_response_get_3_ a_response_get_4_ a_response_get_5_ a_response_get_6_ a_RDY_response_get
ABUFX2_1 [CLK] CLK_hier0_bF$buf6 d_lut_BUFX2
ABUFX2_2 [CLK] CLK_hier0_bF$buf5 d_lut_BUFX2
ABUFX2_3 [CLK] CLK_hier0_bF$buf4 d_lut_BUFX2
ABUFX2_4 [CLK] CLK_hier0_bF$buf3 d_lut_BUFX2
ABUFX2_5 [CLK] CLK_hier0_bF$buf2 d_lut_BUFX2
ABUFX2_6 [CLK] CLK_hier0_bF$buf1 d_lut_BUFX2
ABUFX2_7 [CLK] CLK_hier0_bF$buf0 d_lut_BUFX2
ABUFX2_8 [vCheckNodes_6.CAN_FIRE_RL_rlProcessIteration] vCheckNodes_6.CAN_FIRE_RL_rlProcessIteration_bF$buf5 d_lut_BUFX2
ABUFX2_9 [vCheckNodes_6.CAN_FIRE_RL_rlProcessIteration] vCheckNodes_6.CAN_FIRE_RL_rlProcessIteration_bF$buf4 d_lut_BUFX2
ABUFX2_10 [vCheckNodes_6.CAN_FIRE_RL_rlProcessIteration] vCheckNodes_6.CAN_FIRE_RL_rlProcessIteration_bF$buf3 d_lut_BUFX2
ABUFX2_11 [vCheckNodes_6.CAN_FIRE_RL_rlProcessIteration] vCheckNodes_6.CAN_FIRE_RL_rlProcessIteration_bF$buf2 d_lut_BUFX2
ABUFX2_12 [vCheckNodes_6.CAN_FIRE_RL_rlProcessIteration] vCheckNodes_6.CAN_FIRE_RL_rlProcessIteration_bF$buf1 d_lut_BUFX2
ABUFX2_13 [vCheckNodes_6.CAN_FIRE_RL_rlProcessIteration] vCheckNodes_6.CAN_FIRE_RL_rlProcessIteration_bF$buf0 d_lut_BUFX2
ABUFX2_14 [vBitNodes_4.CAN_FIRE_RL_rlProcessChkNodeResult] vBitNodes_4.CAN_FIRE_RL_rlProcessChkNodeResult_bF$buf3 d_lut_BUFX2
ABUFX2_15 [vBitNodes_4.CAN_FIRE_RL_rlProcessChkNodeResult] vBitNodes_4.CAN_FIRE_RL_rlProcessChkNodeResult_bF$buf2 d_lut_BUFX2
ABUFX2_16 [vBitNodes_4.CAN_FIRE_RL_rlProcessChkNodeResult] vBitNodes_4.CAN_FIRE_RL_rlProcessChkNodeResult_bF$buf1 d_lut_BUFX2
ABUFX2_17 [vBitNodes_4.CAN_FIRE_RL_rlProcessChkNodeResult] vBitNodes_4.CAN_FIRE_RL_rlProcessChkNodeResult_bF$buf0 d_lut_BUFX2
ABUFX2_18 [vBitNodes_6.CAN_FIRE_RL_rlProcessChkNodeResult] vBitNodes_6.CAN_FIRE_RL_rlProcessChkNodeResult_bF$buf3 d_lut_BUFX2
ABUFX2_19 [vBitNodes_6.CAN_FIRE_RL_rlProcessChkNodeResult] vBitNodes_6.CAN_FIRE_RL_rlProcessChkNodeResult_bF$buf2 d_lut_BUFX2
ABUFX2_20 [vBitNodes_6.CAN_FIRE_RL_rlProcessChkNodeResult] vBitNodes_6.CAN_FIRE_RL_rlProcessChkNodeResult_bF$buf1 d_lut_BUFX2
ABUFX2_21 [vBitNodes_6.CAN_FIRE_RL_rlProcessChkNodeResult] vBitNodes_6.CAN_FIRE_RL_rlProcessChkNodeResult_bF$buf0 d_lut_BUFX2
ABUFX2_22 [CAN_FIRE_RL_rlConnect] CAN_FIRE_RL_rlConnect_bF$buf4 d_lut_BUFX2
ABUFX2_23 [CAN_FIRE_RL_rlConnect] CAN_FIRE_RL_rlConnect_bF$buf3 d_lut_BUFX2
ABUFX2_24 [CAN_FIRE_RL_rlConnect] CAN_FIRE_RL_rlConnect_bF$buf2 d_lut_BUFX2
ABUFX2_25 [CAN_FIRE_RL_rlConnect] CAN_FIRE_RL_rlConnect_bF$buf1 d_lut_BUFX2
ABUFX2_26 [CAN_FIRE_RL_rlConnect] CAN_FIRE_RL_rlConnect_bF$buf0 d_lut_BUFX2
ABUFX2_27 [RST_N] RST_N_bF$buf8 d_lut_BUFX2
ABUFX2_28 [RST_N] RST_N_bF$buf7 d_lut_BUFX2
ABUFX2_29 [RST_N] RST_N_bF$buf6 d_lut_BUFX2
ABUFX2_30 [RST_N] RST_N_bF$buf5 d_lut_BUFX2
ABUFX2_31 [RST_N] RST_N_bF$buf4 d_lut_BUFX2
ABUFX2_32 [RST_N] RST_N_bF$buf3 d_lut_BUFX2
ABUFX2_33 [RST_N] RST_N_bF$buf2 d_lut_BUFX2
ABUFX2_34 [RST_N] RST_N_bF$buf1 d_lut_BUFX2
ABUFX2_35 [RST_N] RST_N_bF$buf0 d_lut_BUFX2
ABUFX2_36 [vCheckNodes_1.CAN_FIRE_RL_rlProcessIteration] vCheckNodes_1.CAN_FIRE_RL_rlProcessIteration_bF$buf5 d_lut_BUFX2
ABUFX2_37 [vCheckNodes_1.CAN_FIRE_RL_rlProcessIteration] vCheckNodes_1.CAN_FIRE_RL_rlProcessIteration_bF$buf4 d_lut_BUFX2
ABUFX2_38 [vCheckNodes_1.CAN_FIRE_RL_rlProcessIteration] vCheckNodes_1.CAN_FIRE_RL_rlProcessIteration_bF$buf3 d_lut_BUFX2
ABUFX2_39 [vCheckNodes_1.CAN_FIRE_RL_rlProcessIteration] vCheckNodes_1.CAN_FIRE_RL_rlProcessIteration_bF$buf2 d_lut_BUFX2
ABUFX2_40 [vCheckNodes_1.CAN_FIRE_RL_rlProcessIteration] vCheckNodes_1.CAN_FIRE_RL_rlProcessIteration_bF$buf1 d_lut_BUFX2
ABUFX2_41 [vCheckNodes_1.CAN_FIRE_RL_rlProcessIteration] vCheckNodes_1.CAN_FIRE_RL_rlProcessIteration_bF$buf0 d_lut_BUFX2
ABUFX2_42 [vBitNodes_0.CAN_FIRE_RL_rlProcessChkNodeResult] vBitNodes_0.CAN_FIRE_RL_rlProcessChkNodeResult_bF$buf3 d_lut_BUFX2
ABUFX2_43 [vBitNodes_0.CAN_FIRE_RL_rlProcessChkNodeResult] vBitNodes_0.CAN_FIRE_RL_rlProcessChkNodeResult_bF$buf2 d_lut_BUFX2
ABUFX2_44 [vBitNodes_0.CAN_FIRE_RL_rlProcessChkNodeResult] vBitNodes_0.CAN_FIRE_RL_rlProcessChkNodeResult_bF$buf1 d_lut_BUFX2
ABUFX2_45 [vBitNodes_0.CAN_FIRE_RL_rlProcessChkNodeResult] vBitNodes_0.CAN_FIRE_RL_rlProcessChkNodeResult_bF$buf0 d_lut_BUFX2
ABUFX2_46 [vBitNodes_2.CAN_FIRE_RL_rlProcessChkNodeResult] vBitNodes_2.CAN_FIRE_RL_rlProcessChkNodeResult_bF$buf3 d_lut_BUFX2
ABUFX2_47 [vBitNodes_2.CAN_FIRE_RL_rlProcessChkNodeResult] vBitNodes_2.CAN_FIRE_RL_rlProcessChkNodeResult_bF$buf2 d_lut_BUFX2
ABUFX2_48 [vBitNodes_2.CAN_FIRE_RL_rlProcessChkNodeResult] vBitNodes_2.CAN_FIRE_RL_rlProcessChkNodeResult_bF$buf1 d_lut_BUFX2
ABUFX2_49 [vBitNodes_2.CAN_FIRE_RL_rlProcessChkNodeResult] vBitNodes_2.CAN_FIRE_RL_rlProcessChkNodeResult_bF$buf0 d_lut_BUFX2
ABUFX2_50 [vBitNodes_0$EN_codeIn_put] vBitNodes_0$EN_codeIn_put_bF$buf6 d_lut_BUFX2
ABUFX2_51 [vBitNodes_0$EN_codeIn_put] vBitNodes_0$EN_codeIn_put_bF$buf5 d_lut_BUFX2
ABUFX2_52 [vBitNodes_0$EN_codeIn_put] vBitNodes_0$EN_codeIn_put_bF$buf4 d_lut_BUFX2
ABUFX2_53 [vBitNodes_0$EN_codeIn_put] vBitNodes_0$EN_codeIn_put_bF$buf3 d_lut_BUFX2
ABUFX2_54 [vBitNodes_0$EN_codeIn_put] vBitNodes_0$EN_codeIn_put_bF$buf2 d_lut_BUFX2
ABUFX2_55 [vBitNodes_0$EN_codeIn_put] vBitNodes_0$EN_codeIn_put_bF$buf1 d_lut_BUFX2
ABUFX2_56 [vBitNodes_0$EN_codeIn_put] vBitNodes_0$EN_codeIn_put_bF$buf0 d_lut_BUFX2
ABUFX2_57 [vBitNodes_5.CAN_FIRE_RL_rlProcessChkNodeResult] vBitNodes_5.CAN_FIRE_RL_rlProcessChkNodeResult_bF$buf3 d_lut_BUFX2
ABUFX2_58 [vBitNodes_5.CAN_FIRE_RL_rlProcessChkNodeResult] vBitNodes_5.CAN_FIRE_RL_rlProcessChkNodeResult_bF$buf2 d_lut_BUFX2
ABUFX2_59 [vBitNodes_5.CAN_FIRE_RL_rlProcessChkNodeResult] vBitNodes_5.CAN_FIRE_RL_rlProcessChkNodeResult_bF$buf1 d_lut_BUFX2
ABUFX2_60 [vBitNodes_5.CAN_FIRE_RL_rlProcessChkNodeResult] vBitNodes_5.CAN_FIRE_RL_rlProcessChkNodeResult_bF$buf0 d_lut_BUFX2
ABUFX2_61 [vCheckNodes_4.CAN_FIRE_RL_rlProcessIteration] vCheckNodes_4.CAN_FIRE_RL_rlProcessIteration_bF$buf5 d_lut_BUFX2
ABUFX2_62 [vCheckNodes_4.CAN_FIRE_RL_rlProcessIteration] vCheckNodes_4.CAN_FIRE_RL_rlProcessIteration_bF$buf4 d_lut_BUFX2
ABUFX2_63 [vCheckNodes_4.CAN_FIRE_RL_rlProcessIteration] vCheckNodes_4.CAN_FIRE_RL_rlProcessIteration_bF$buf3 d_lut_BUFX2
ABUFX2_64 [vCheckNodes_4.CAN_FIRE_RL_rlProcessIteration] vCheckNodes_4.CAN_FIRE_RL_rlProcessIteration_bF$buf2 d_lut_BUFX2
ABUFX2_65 [vCheckNodes_4.CAN_FIRE_RL_rlProcessIteration] vCheckNodes_4.CAN_FIRE_RL_rlProcessIteration_bF$buf1 d_lut_BUFX2
ABUFX2_66 [vCheckNodes_4.CAN_FIRE_RL_rlProcessIteration] vCheckNodes_4.CAN_FIRE_RL_rlProcessIteration_bF$buf0 d_lut_BUFX2
ABUFX2_67 [CAN_FIRE_RL_rlEvaluateOutput] CAN_FIRE_RL_rlEvaluateOutput_bF$buf5 d_lut_BUFX2
ABUFX2_68 [CAN_FIRE_RL_rlEvaluateOutput] CAN_FIRE_RL_rlEvaluateOutput_bF$buf4 d_lut_BUFX2
ABUFX2_69 [CAN_FIRE_RL_rlEvaluateOutput] CAN_FIRE_RL_rlEvaluateOutput_bF$buf3 d_lut_BUFX2
ABUFX2_70 [CAN_FIRE_RL_rlEvaluateOutput] CAN_FIRE_RL_rlEvaluateOutput_bF$buf2 d_lut_BUFX2
ABUFX2_71 [CAN_FIRE_RL_rlEvaluateOutput] CAN_FIRE_RL_rlEvaluateOutput_bF$buf1 d_lut_BUFX2
ABUFX2_72 [CAN_FIRE_RL_rlEvaluateOutput] CAN_FIRE_RL_rlEvaluateOutput_bF$buf0 d_lut_BUFX2
ACLKBUF1_1 [CLK_hier0_bF$buf6] CLK_bF$buf50 d_lut_CLKBUF1
ACLKBUF1_2 [CLK_hier0_bF$buf5] CLK_bF$buf49 d_lut_CLKBUF1
ACLKBUF1_3 [CLK_hier0_bF$buf4] CLK_bF$buf48 d_lut_CLKBUF1
ACLKBUF1_4 [CLK_hier0_bF$buf3] CLK_bF$buf47 d_lut_CLKBUF1
ACLKBUF1_5 [CLK_hier0_bF$buf2] CLK_bF$buf46 d_lut_CLKBUF1
ACLKBUF1_6 [CLK_hier0_bF$buf1] CLK_bF$buf45 d_lut_CLKBUF1
ACLKBUF1_7 [CLK_hier0_bF$buf0] CLK_bF$buf44 d_lut_CLKBUF1
ACLKBUF1_8 [CLK_hier0_bF$buf6] CLK_bF$buf43 d_lut_CLKBUF1
ACLKBUF1_9 [CLK_hier0_bF$buf5] CLK_bF$buf42 d_lut_CLKBUF1
ACLKBUF1_10 [CLK_hier0_bF$buf4] CLK_bF$buf41 d_lut_CLKBUF1
ACLKBUF1_11 [CLK_hier0_bF$buf3] CLK_bF$buf40 d_lut_CLKBUF1
ACLKBUF1_12 [CLK_hier0_bF$buf2] CLK_bF$buf39 d_lut_CLKBUF1
ACLKBUF1_13 [CLK_hier0_bF$buf1] CLK_bF$buf38 d_lut_CLKBUF1
ACLKBUF1_14 [CLK_hier0_bF$buf0] CLK_bF$buf37 d_lut_CLKBUF1
ACLKBUF1_15 [CLK_hier0_bF$buf6] CLK_bF$buf36 d_lut_CLKBUF1
ACLKBUF1_16 [CLK_hier0_bF$buf5] CLK_bF$buf35 d_lut_CLKBUF1
ACLKBUF1_17 [CLK_hier0_bF$buf4] CLK_bF$buf34 d_lut_CLKBUF1
ACLKBUF1_18 [CLK_hier0_bF$buf3] CLK_bF$buf33 d_lut_CLKBUF1
ACLKBUF1_19 [CLK_hier0_bF$buf2] CLK_bF$buf32 d_lut_CLKBUF1
ACLKBUF1_20 [CLK_hier0_bF$buf1] CLK_bF$buf31 d_lut_CLKBUF1
ACLKBUF1_21 [CLK_hier0_bF$buf0] CLK_bF$buf30 d_lut_CLKBUF1
ACLKBUF1_22 [CLK_hier0_bF$buf6] CLK_bF$buf29 d_lut_CLKBUF1
ACLKBUF1_23 [CLK_hier0_bF$buf5] CLK_bF$buf28 d_lut_CLKBUF1
ACLKBUF1_24 [CLK_hier0_bF$buf4] CLK_bF$buf27 d_lut_CLKBUF1
ACLKBUF1_25 [CLK_hier0_bF$buf3] CLK_bF$buf26 d_lut_CLKBUF1
ACLKBUF1_26 [CLK_hier0_bF$buf2] CLK_bF$buf25 d_lut_CLKBUF1
ACLKBUF1_27 [CLK_hier0_bF$buf1] CLK_bF$buf24 d_lut_CLKBUF1
ACLKBUF1_28 [CLK_hier0_bF$buf0] CLK_bF$buf23 d_lut_CLKBUF1
ACLKBUF1_29 [CLK_hier0_bF$buf6] CLK_bF$buf22 d_lut_CLKBUF1
ACLKBUF1_30 [CLK_hier0_bF$buf5] CLK_bF$buf21 d_lut_CLKBUF1
ACLKBUF1_31 [CLK_hier0_bF$buf4] CLK_bF$buf20 d_lut_CLKBUF1
ACLKBUF1_32 [CLK_hier0_bF$buf3] CLK_bF$buf19 d_lut_CLKBUF1
ACLKBUF1_33 [CLK_hier0_bF$buf2] CLK_bF$buf18 d_lut_CLKBUF1
ACLKBUF1_34 [CLK_hier0_bF$buf1] CLK_bF$buf17 d_lut_CLKBUF1
ACLKBUF1_35 [CLK_hier0_bF$buf0] CLK_bF$buf16 d_lut_CLKBUF1
ACLKBUF1_36 [CLK_hier0_bF$buf6] CLK_bF$buf15 d_lut_CLKBUF1
ACLKBUF1_37 [CLK_hier0_bF$buf5] CLK_bF$buf14 d_lut_CLKBUF1
ACLKBUF1_38 [CLK_hier0_bF$buf4] CLK_bF$buf13 d_lut_CLKBUF1
ACLKBUF1_39 [CLK_hier0_bF$buf3] CLK_bF$buf12 d_lut_CLKBUF1
ACLKBUF1_40 [CLK_hier0_bF$buf2] CLK_bF$buf11 d_lut_CLKBUF1
ACLKBUF1_41 [CLK_hier0_bF$buf1] CLK_bF$buf10 d_lut_CLKBUF1
ACLKBUF1_42 [CLK_hier0_bF$buf0] CLK_bF$buf9 d_lut_CLKBUF1
ACLKBUF1_43 [CLK_hier0_bF$buf6] CLK_bF$buf8 d_lut_CLKBUF1
ACLKBUF1_44 [CLK_hier0_bF$buf5] CLK_bF$buf7 d_lut_CLKBUF1
ACLKBUF1_45 [CLK_hier0_bF$buf4] CLK_bF$buf6 d_lut_CLKBUF1
ACLKBUF1_46 [CLK_hier0_bF$buf3] CLK_bF$buf5 d_lut_CLKBUF1
ACLKBUF1_47 [CLK_hier0_bF$buf2] CLK_bF$buf4 d_lut_CLKBUF1
ACLKBUF1_48 [CLK_hier0_bF$buf1] CLK_bF$buf3 d_lut_CLKBUF1
ACLKBUF1_49 [CLK_hier0_bF$buf0] CLK_bF$buf2 d_lut_CLKBUF1
ACLKBUF1_50 [CLK_hier0_bF$buf6] CLK_bF$buf1 d_lut_CLKBUF1
ACLKBUF1_51 [CLK_hier0_bF$buf5] CLK_bF$buf0 d_lut_CLKBUF1
ABUFX2_73 [CAN_FIRE_RL_rlConnect_1] CAN_FIRE_RL_rlConnect_1_bF$buf4 d_lut_BUFX2
ABUFX2_74 [CAN_FIRE_RL_rlConnect_1] CAN_FIRE_RL_rlConnect_1_bF$buf3 d_lut_BUFX2
ABUFX2_75 [CAN_FIRE_RL_rlConnect_1] CAN_FIRE_RL_rlConnect_1_bF$buf2 d_lut_BUFX2
ABUFX2_76 [CAN_FIRE_RL_rlConnect_1] CAN_FIRE_RL_rlConnect_1_bF$buf1 d_lut_BUFX2
ABUFX2_77 [CAN_FIRE_RL_rlConnect_1] CAN_FIRE_RL_rlConnect_1_bF$buf0 d_lut_BUFX2
ABUFX2_78 [CAN_FIRE_RL_rlConnect_2] CAN_FIRE_RL_rlConnect_2_bF$buf4 d_lut_BUFX2
ABUFX2_79 [CAN_FIRE_RL_rlConnect_2] CAN_FIRE_RL_rlConnect_2_bF$buf3 d_lut_BUFX2
ABUFX2_80 [CAN_FIRE_RL_rlConnect_2] CAN_FIRE_RL_rlConnect_2_bF$buf2 d_lut_BUFX2
ABUFX2_81 [CAN_FIRE_RL_rlConnect_2] CAN_FIRE_RL_rlConnect_2_bF$buf1 d_lut_BUFX2
ABUFX2_82 [CAN_FIRE_RL_rlConnect_2] CAN_FIRE_RL_rlConnect_2_bF$buf0 d_lut_BUFX2
ABUFX2_83 [CAN_FIRE_RL_rlConnect_3] CAN_FIRE_RL_rlConnect_3_bF$buf4 d_lut_BUFX2
ABUFX2_84 [CAN_FIRE_RL_rlConnect_3] CAN_FIRE_RL_rlConnect_3_bF$buf3 d_lut_BUFX2
ABUFX2_85 [CAN_FIRE_RL_rlConnect_3] CAN_FIRE_RL_rlConnect_3_bF$buf2 d_lut_BUFX2
ABUFX2_86 [CAN_FIRE_RL_rlConnect_3] CAN_FIRE_RL_rlConnect_3_bF$buf1 d_lut_BUFX2
ABUFX2_87 [CAN_FIRE_RL_rlConnect_3] CAN_FIRE_RL_rlConnect_3_bF$buf0 d_lut_BUFX2
ABUFX2_88 [CAN_FIRE_RL_rlConnect_4] CAN_FIRE_RL_rlConnect_4_bF$buf4 d_lut_BUFX2
ABUFX2_89 [CAN_FIRE_RL_rlConnect_4] CAN_FIRE_RL_rlConnect_4_bF$buf3 d_lut_BUFX2
ABUFX2_90 [CAN_FIRE_RL_rlConnect_4] CAN_FIRE_RL_rlConnect_4_bF$buf2 d_lut_BUFX2
ABUFX2_91 [CAN_FIRE_RL_rlConnect_4] CAN_FIRE_RL_rlConnect_4_bF$buf1 d_lut_BUFX2
ABUFX2_92 [CAN_FIRE_RL_rlConnect_4] CAN_FIRE_RL_rlConnect_4_bF$buf0 d_lut_BUFX2
ABUFX2_93 [CAN_FIRE_RL_rlConnect_5] CAN_FIRE_RL_rlConnect_5_bF$buf4 d_lut_BUFX2
ABUFX2_94 [CAN_FIRE_RL_rlConnect_5] CAN_FIRE_RL_rlConnect_5_bF$buf3 d_lut_BUFX2
ABUFX2_95 [CAN_FIRE_RL_rlConnect_5] CAN_FIRE_RL_rlConnect_5_bF$buf2 d_lut_BUFX2
ABUFX2_96 [CAN_FIRE_RL_rlConnect_5] CAN_FIRE_RL_rlConnect_5_bF$buf1 d_lut_BUFX2
ABUFX2_97 [CAN_FIRE_RL_rlConnect_5] CAN_FIRE_RL_rlConnect_5_bF$buf0 d_lut_BUFX2
ABUFX2_98 [CAN_FIRE_RL_rlConnect_6] CAN_FIRE_RL_rlConnect_6_bF$buf4 d_lut_BUFX2
ABUFX2_99 [CAN_FIRE_RL_rlConnect_6] CAN_FIRE_RL_rlConnect_6_bF$buf3 d_lut_BUFX2
ABUFX2_100 [CAN_FIRE_RL_rlConnect_6] CAN_FIRE_RL_rlConnect_6_bF$buf2 d_lut_BUFX2
ABUFX2_101 [CAN_FIRE_RL_rlConnect_6] CAN_FIRE_RL_rlConnect_6_bF$buf1 d_lut_BUFX2
ABUFX2_102 [CAN_FIRE_RL_rlConnect_6] CAN_FIRE_RL_rlConnect_6_bF$buf0 d_lut_BUFX2
ABUFX2_103 [vBitNodes_1.CAN_FIRE_RL_rlProcessChkNodeResult] vBitNodes_1.CAN_FIRE_RL_rlProcessChkNodeResult_bF$buf3 d_lut_BUFX2
ABUFX2_104 [vBitNodes_1.CAN_FIRE_RL_rlProcessChkNodeResult] vBitNodes_1.CAN_FIRE_RL_rlProcessChkNodeResult_bF$buf2 d_lut_BUFX2
ABUFX2_105 [vBitNodes_1.CAN_FIRE_RL_rlProcessChkNodeResult] vBitNodes_1.CAN_FIRE_RL_rlProcessChkNodeResult_bF$buf1 d_lut_BUFX2
ABUFX2_106 [vBitNodes_1.CAN_FIRE_RL_rlProcessChkNodeResult] vBitNodes_1.CAN_FIRE_RL_rlProcessChkNodeResult_bF$buf0 d_lut_BUFX2
ABUFX2_107 [vBitNodes_3.CAN_FIRE_RL_rlProcessChkNodeResult] vBitNodes_3.CAN_FIRE_RL_rlProcessChkNodeResult_bF$buf3 d_lut_BUFX2
ABUFX2_108 [vBitNodes_3.CAN_FIRE_RL_rlProcessChkNodeResult] vBitNodes_3.CAN_FIRE_RL_rlProcessChkNodeResult_bF$buf2 d_lut_BUFX2
ABUFX2_109 [vBitNodes_3.CAN_FIRE_RL_rlProcessChkNodeResult] vBitNodes_3.CAN_FIRE_RL_rlProcessChkNodeResult_bF$buf1 d_lut_BUFX2
ABUFX2_110 [vBitNodes_3.CAN_FIRE_RL_rlProcessChkNodeResult] vBitNodes_3.CAN_FIRE_RL_rlProcessChkNodeResult_bF$buf0 d_lut_BUFX2
ABUFX2_111 [vCheckNodes_2.CAN_FIRE_RL_rlProcessIteration] vCheckNodes_2.CAN_FIRE_RL_rlProcessIteration_bF$buf5 d_lut_BUFX2
ABUFX2_112 [vCheckNodes_2.CAN_FIRE_RL_rlProcessIteration] vCheckNodes_2.CAN_FIRE_RL_rlProcessIteration_bF$buf4 d_lut_BUFX2
ABUFX2_113 [vCheckNodes_2.CAN_FIRE_RL_rlProcessIteration] vCheckNodes_2.CAN_FIRE_RL_rlProcessIteration_bF$buf3 d_lut_BUFX2
ABUFX2_114 [vCheckNodes_2.CAN_FIRE_RL_rlProcessIteration] vCheckNodes_2.CAN_FIRE_RL_rlProcessIteration_bF$buf2 d_lut_BUFX2
ABUFX2_115 [vCheckNodes_2.CAN_FIRE_RL_rlProcessIteration] vCheckNodes_2.CAN_FIRE_RL_rlProcessIteration_bF$buf1 d_lut_BUFX2
ABUFX2_116 [vCheckNodes_2.CAN_FIRE_RL_rlProcessIteration] vCheckNodes_2.CAN_FIRE_RL_rlProcessIteration_bF$buf0 d_lut_BUFX2
ABUFX2_117 [vCheckNodes_0.CAN_FIRE_RL_rlProcessIteration] vCheckNodes_0.CAN_FIRE_RL_rlProcessIteration_bF$buf5 d_lut_BUFX2
ABUFX2_118 [vCheckNodes_0.CAN_FIRE_RL_rlProcessIteration] vCheckNodes_0.CAN_FIRE_RL_rlProcessIteration_bF$buf4 d_lut_BUFX2
ABUFX2_119 [vCheckNodes_0.CAN_FIRE_RL_rlProcessIteration] vCheckNodes_0.CAN_FIRE_RL_rlProcessIteration_bF$buf3 d_lut_BUFX2
ABUFX2_120 [vCheckNodes_0.CAN_FIRE_RL_rlProcessIteration] vCheckNodes_0.CAN_FIRE_RL_rlProcessIteration_bF$buf2 d_lut_BUFX2
ABUFX2_121 [vCheckNodes_0.CAN_FIRE_RL_rlProcessIteration] vCheckNodes_0.CAN_FIRE_RL_rlProcessIteration_bF$buf1 d_lut_BUFX2
ABUFX2_122 [vCheckNodes_0.CAN_FIRE_RL_rlProcessIteration] vCheckNodes_0.CAN_FIRE_RL_rlProcessIteration_bF$buf0 d_lut_BUFX2
ABUFX2_123 [vCheckNodes_5.CAN_FIRE_RL_rlProcessIteration] vCheckNodes_5.CAN_FIRE_RL_rlProcessIteration_bF$buf5 d_lut_BUFX2
ABUFX2_124 [vCheckNodes_5.CAN_FIRE_RL_rlProcessIteration] vCheckNodes_5.CAN_FIRE_RL_rlProcessIteration_bF$buf4 d_lut_BUFX2
ABUFX2_125 [vCheckNodes_5.CAN_FIRE_RL_rlProcessIteration] vCheckNodes_5.CAN_FIRE_RL_rlProcessIteration_bF$buf3 d_lut_BUFX2
ABUFX2_126 [vCheckNodes_5.CAN_FIRE_RL_rlProcessIteration] vCheckNodes_5.CAN_FIRE_RL_rlProcessIteration_bF$buf2 d_lut_BUFX2
ABUFX2_127 [vCheckNodes_5.CAN_FIRE_RL_rlProcessIteration] vCheckNodes_5.CAN_FIRE_RL_rlProcessIteration_bF$buf1 d_lut_BUFX2
ABUFX2_128 [vCheckNodes_5.CAN_FIRE_RL_rlProcessIteration] vCheckNodes_5.CAN_FIRE_RL_rlProcessIteration_bF$buf0 d_lut_BUFX2
ABUFX2_129 [vCheckNodes_3.CAN_FIRE_RL_rlProcessIteration] vCheckNodes_3.CAN_FIRE_RL_rlProcessIteration_bF$buf5 d_lut_BUFX2
ABUFX2_130 [vCheckNodes_3.CAN_FIRE_RL_rlProcessIteration] vCheckNodes_3.CAN_FIRE_RL_rlProcessIteration_bF$buf4 d_lut_BUFX2
ABUFX2_131 [vCheckNodes_3.CAN_FIRE_RL_rlProcessIteration] vCheckNodes_3.CAN_FIRE_RL_rlProcessIteration_bF$buf3 d_lut_BUFX2
ABUFX2_132 [vCheckNodes_3.CAN_FIRE_RL_rlProcessIteration] vCheckNodes_3.CAN_FIRE_RL_rlProcessIteration_bF$buf2 d_lut_BUFX2
ABUFX2_133 [vCheckNodes_3.CAN_FIRE_RL_rlProcessIteration] vCheckNodes_3.CAN_FIRE_RL_rlProcessIteration_bF$buf1 d_lut_BUFX2
ABUFX2_134 [vCheckNodes_3.CAN_FIRE_RL_rlProcessIteration] vCheckNodes_3.CAN_FIRE_RL_rlProcessIteration_bF$buf0 d_lut_BUFX2
ANAND2X1_1 [vCheckNodes_0$RDY_b2c_0_put vBitNodes_0$RDY_b2c_get] _1_ d_lut_NAND2X1
ANAND2X1_2 [vCheckNodes_6$RDY_b2c_0_put vCheckNodes_4$RDY_b2c_0_put] _2_ d_lut_NAND2X1
ANOR2X1_1 [_1_ _2_] CAN_FIRE_RL_rlConnect d_lut_NOR2X1
ANAND2X1_3 [vCheckNodes_0$RDY_b2c_1_put vBitNodes_1$RDY_b2c_get] _3_ d_lut_NAND2X1
ANAND2X1_4 [vCheckNodes_5$RDY_b2c_0_put vCheckNodes_1$RDY_b2c_0_put] _4_ d_lut_NAND2X1
ANOR2X1_2 [_3_ _4_] CAN_FIRE_RL_rlConnect_1 d_lut_NOR2X1
ANAND2X1_5 [vCheckNodes_1$RDY_b2c_1_put vBitNodes_2$RDY_b2c_get] _5_ d_lut_NAND2X1
ANAND2X1_6 [vCheckNodes_2$RDY_b2c_0_put vCheckNodes_6$RDY_b2c_1_put] _6_ d_lut_NAND2X1
ANOR2X1_3 [_5_ _6_] CAN_FIRE_RL_rlConnect_2 d_lut_NOR2X1
ANAND2X1_7 [vCheckNodes_0$RDY_b2c_2_put vBitNodes_3$RDY_b2c_get] _7_ d_lut_NAND2X1
ANAND2X1_8 [vCheckNodes_3$RDY_b2c_0_put vCheckNodes_2$RDY_b2c_1_put] _8_ d_lut_NAND2X1
ANOR2X1_4 [_7_ _8_] CAN_FIRE_RL_rlConnect_3 d_lut_NOR2X1
ANAND2X1_9 [vCheckNodes_1$RDY_b2c_2_put vBitNodes_4$RDY_b2c_get] _9_ d_lut_NAND2X1
ANAND2X1_10 [vCheckNodes_4$RDY_b2c_1_put vCheckNodes_3$RDY_b2c_1_put] _10_ d_lut_NAND2X1
ANOR2X1_5 [_9_ _10_] CAN_FIRE_RL_rlConnect_4 d_lut_NOR2X1
ANAND2X1_11 [vCheckNodes_2$RDY_b2c_2_put vBitNodes_5$RDY_b2c_get] _11_ d_lut_NAND2X1
ANAND2X1_12 [vCheckNodes_5$RDY_b2c_1_put vCheckNodes_4$RDY_b2c_2_put] _12_ d_lut_NAND2X1
ANOR2X1_6 [_11_ _12_] CAN_FIRE_RL_rlConnect_5 d_lut_NOR2X1
ANAND2X1_13 [vCheckNodes_3$RDY_b2c_2_put vBitNodes_6$RDY_b2c_get] _13_ d_lut_NAND2X1
ANAND2X1_14 [vCheckNodes_6$RDY_b2c_2_put vCheckNodes_5$RDY_b2c_2_put] _14_ d_lut_NAND2X1
ANOR2X1_7 [_13_ _14_] CAN_FIRE_RL_rlConnect_6 d_lut_NOR2X1
AAND2X2_1 [vCheckNodes_0$RDY_c2b_0_get vBitNodes_0$RDY_c2b_0_put] CAN_FIRE_RL_mkConnectionGetPut d_lut_AND2X2
AAND2X2_2 [vCheckNodes_0$RDY_c2b_1_get vBitNodes_1$RDY_c2b_0_put] CAN_FIRE_RL_mkConnectionGetPut_1 d_lut_AND2X2
AAND2X2_3 [vCheckNodes_0$RDY_c2b_2_get vBitNodes_3$RDY_c2b_0_put] CAN_FIRE_RL_mkConnectionGetPut_2 d_lut_AND2X2
AAND2X2_4 [vCheckNodes_1$RDY_c2b_0_get vBitNodes_1$RDY_c2b_1_put] CAN_FIRE_RL_mkConnectionGetPut_3 d_lut_AND2X2
AAND2X2_5 [vCheckNodes_1$RDY_c2b_1_get vBitNodes_2$RDY_c2b_0_put] CAN_FIRE_RL_mkConnectionGetPut_4 d_lut_AND2X2
AAND2X2_6 [vCheckNodes_1$RDY_c2b_2_get vBitNodes_4$RDY_c2b_0_put] CAN_FIRE_RL_mkConnectionGetPut_5 d_lut_AND2X2
AAND2X2_7 [vCheckNodes_2$RDY_c2b_0_get vBitNodes_2$RDY_c2b_1_put] CAN_FIRE_RL_mkConnectionGetPut_6 d_lut_AND2X2
AAND2X2_8 [vCheckNodes_2$RDY_c2b_1_get vBitNodes_3$RDY_c2b_1_put] CAN_FIRE_RL_mkConnectionGetPut_7 d_lut_AND2X2
AAND2X2_9 [vCheckNodes_2$RDY_c2b_2_get vBitNodes_5$RDY_c2b_0_put] CAN_FIRE_RL_mkConnectionGetPut_8 d_lut_AND2X2
AAND2X2_10 [vCheckNodes_3$RDY_c2b_0_get vBitNodes_3$RDY_c2b_2_put] CAN_FIRE_RL_mkConnectionGetPut_9 d_lut_AND2X2
AAND2X2_11 [vCheckNodes_3$RDY_c2b_1_get vBitNodes_4$RDY_c2b_1_put] CAN_FIRE_RL_mkConnectionGetPut_10 d_lut_AND2X2
AAND2X2_12 [vCheckNodes_3$RDY_c2b_2_get vBitNodes_6$RDY_c2b_0_put] CAN_FIRE_RL_mkConnectionGetPut_11 d_lut_AND2X2
AAND2X2_13 [vCheckNodes_4$RDY_c2b_0_get vBitNodes_0$RDY_c2b_1_put] CAN_FIRE_RL_mkConnectionGetPut_12 d_lut_AND2X2
AAND2X2_14 [vCheckNodes_4$RDY_c2b_1_get vBitNodes_4$RDY_c2b_2_put] CAN_FIRE_RL_mkConnectionGetPut_13 d_lut_AND2X2
AAND2X2_15 [vCheckNodes_4$RDY_c2b_2_get vBitNodes_5$RDY_c2b_1_put] CAN_FIRE_RL_mkConnectionGetPut_14 d_lut_AND2X2
AAND2X2_16 [vCheckNodes_5$RDY_c2b_0_get vBitNodes_1$RDY_c2b_2_put] CAN_FIRE_RL_mkConnectionGetPut_15 d_lut_AND2X2
AAND2X2_17 [vCheckNodes_5$RDY_c2b_1_get vBitNodes_5$RDY_c2b_2_put] CAN_FIRE_RL_mkConnectionGetPut_16 d_lut_AND2X2
AAND2X2_18 [vCheckNodes_5$RDY_c2b_2_get vBitNodes_6$RDY_c2b_1_put] CAN_FIRE_RL_mkConnectionGetPut_17 d_lut_AND2X2
AAND2X2_19 [vCheckNodes_6$RDY_c2b_0_get vBitNodes_0$RDY_c2b_2_put] CAN_FIRE_RL_mkConnectionGetPut_18 d_lut_AND2X2
AAND2X2_20 [vCheckNodes_6$RDY_c2b_1_get vBitNodes_2$RDY_c2b_2_put] CAN_FIRE_RL_mkConnectionGetPut_19 d_lut_AND2X2
AAND2X2_21 [vCheckNodes_6$RDY_c2b_2_get vBitNodes_6$RDY_c2b_2_put] CAN_FIRE_RL_mkConnectionGetPut_20 d_lut_AND2X2
ANAND2X1_15 [vBitNodes_2$RDY_codeIn_put vBitNodes_1$RDY_codeIn_put] _15_ d_lut_NAND2X1
ANAND2X1_16 [vBitNodes_4$RDY_codeIn_put vBitNodes_3$RDY_codeIn_put] _16_ d_lut_NAND2X1
ANOR2X1_8 [_15_ _16_] _17_ d_lut_NOR2X1
ANAND2X1_17 [vBitNodes_6$RDY_codeIn_put vBitNodes_5$RDY_codeIn_put] _18_ d_lut_NAND2X1
AINVX1_1 [_18_] _19_ d_lut_INVX1
ANAND3X1_1 [ffI$EMPTY_N vBitNodes_0$RDY_codeIn_put rgIdle] _20_ d_lut_NAND3X1
AINVX1_2 [_20_] _21_ d_lut_INVX1
ANAND3X1_2 [_19_ _21_ _17_] _22_ d_lut_NAND3X1
AINVX1_3 [_22_] CAN_FIRE_RL_rlPutCodeWordIn d_lut_INVX1
ANAND2X1_18 [vBitNodes_1$RDY_dataOut_get vBitNodes_0$RDY_dataOut_get] _23_ d_lut_NAND2X1
ANAND2X1_19 [vBitNodes_5$RDY_dataOut_get vBitNodes_4$RDY_dataOut_get] _24_ d_lut_NAND2X1
ANOR2X1_9 [_23_ _24_] _25_ d_lut_NOR2X1
AINVX1_4 [vBitNodes_0$RDY_codeIn_put] _26_ d_lut_INVX1
ANOR2X1_10 [rgIdle _26_] _27_ d_lut_NOR2X1
ANAND3X1_3 [_19_ _27_ _25_] _28_ d_lut_NAND3X1
ANAND2X1_20 [ffO$FULL_N vBitNodes_6$RDY_dataOut_get] _29_ d_lut_NAND2X1
ANAND2X1_21 [vBitNodes_3$RDY_dataOut_get vBitNodes_2$RDY_dataOut_get] _30_ d_lut_NAND2X1
ANOR2X1_11 [_29_ _30_] _31_ d_lut_NOR2X1
ANAND2X1_22 [_17_ _31_] _32_ d_lut_NAND2X1
ANOR2X1_12 [_32_ _28_] CAN_FIRE_RL_rlEvaluateOutput d_lut_NOR2X1
AINVX1_5 [fnCheckDecodedWord___d200] _33_ d_lut_INVX1
AAND2X2_22 [CAN_FIRE_RL_rlEvaluateOutput_bF$buf5 _33_] MUX_rgIdle$write_1__SEL_1 d_lut_AND2X2
ANAND2X1_23 [fnCheckDecodedWord___d200 CAN_FIRE_RL_rlEvaluateOutput_bF$buf4] _34_ d_lut_NAND2X1
ANAND2X1_24 [_22_ _34_] vBitNodes_0$EN_codeIn_put d_lut_NAND2X1
AINVX1_6 [ffI$D_OUT_0_] _35_ d_lut_INVX1
ANOR2X1_13 [_18_ _30_] _36_ d_lut_NOR2X1
ANOR2X1_14 [_24_ _29_] _37_ d_lut_NOR2X1
ANAND2X1_25 [_36_ _37_] _38_ d_lut_NAND2X1
AINVX1_7 [_23_] _39_ d_lut_INVX1
ANAND3X1_4 [_39_ _27_ _17_] _40_ d_lut_NAND3X1
ANOR3X1_1 [_33_ _38_ _40_] _41_ d_lut_NOR3X1
ANOR2X1_15 [_38_ _40_] _42_ d_lut_NOR2X1
ANAND3X1_5 [fnCheckDecodedWord___d200 vBitNodes_0$dataOut_get _42_] _43_ d_lut_NAND3X1
AOAI21X1_1 [_35_ _41_ _43_] vBitNodes_0$codeIn_put d_lut_OAI21X1
AINVX1_8 [ffI$D_OUT_1_] _44_ d_lut_INVX1
ANAND3X1_6 [fnCheckDecodedWord___d200 vBitNodes_1$dataOut_get _42_] _45_ d_lut_NAND3X1
AOAI21X1_2 [_44_ _41_ _45_] vBitNodes_1$codeIn_put d_lut_OAI21X1
AINVX1_9 [ffI$D_OUT_2_] _46_ d_lut_INVX1
ANAND3X1_7 [fnCheckDecodedWord___d200 vBitNodes_2$dataOut_get _42_] _47_ d_lut_NAND3X1
AOAI21X1_3 [_46_ _41_ _47_] vBitNodes_2$codeIn_put d_lut_OAI21X1
AINVX1_10 [ffI$D_OUT_3_] _48_ d_lut_INVX1
ANAND3X1_8 [fnCheckDecodedWord___d200 vBitNodes_3$dataOut_get _42_] _49_ d_lut_NAND3X1
AOAI21X1_4 [_48_ _41_ _49_] vBitNodes_3$codeIn_put d_lut_OAI21X1
AINVX1_11 [ffI$D_OUT_4_] _50_ d_lut_INVX1
ANAND3X1_9 [fnCheckDecodedWord___d200 vBitNodes_4$dataOut_get _42_] _51_ d_lut_NAND3X1
AOAI21X1_5 [_50_ _41_ _51_] vBitNodes_4$codeIn_put d_lut_OAI21X1
AINVX1_12 [ffI$D_OUT_5_] _52_ d_lut_INVX1
ANAND3X1_10 [fnCheckDecodedWord___d200 vBitNodes_5$dataOut_get _42_] _53_ d_lut_NAND3X1
AOAI21X1_6 [_52_ _41_ _53_] vBitNodes_5$codeIn_put d_lut_OAI21X1
AINVX1_13 [ffI$D_OUT_6_] _54_ d_lut_INVX1
ANAND3X1_11 [fnCheckDecodedWord___d200 vBitNodes_6$dataOut_get _42_] _55_ d_lut_NAND3X1
AOAI21X1_7 [_54_ _41_ _55_] vBitNodes_6$codeIn_put d_lut_OAI21X1
ANAND2X1_26 [rgIdle _22_] _56_ d_lut_NAND2X1
ANAND2X1_27 [_33_ _42_] _57_ d_lut_NAND2X1
ANAND3X1_12 [RST_N_bF$buf8 _56_ _57_] _0_ d_lut_NAND3X1
ABUFX2_135 [_58_] RDY_request_put d_lut_BUFX2
ABUFX2_136 [_59_] RDY_response_get d_lut_BUFX2
ABUFX2_137 [_60__0_] response_get_0_ d_lut_BUFX2
ABUFX2_138 [_60__1_] response_get_1_ d_lut_BUFX2
ABUFX2_139 [_60__2_] response_get_2_ d_lut_BUFX2
ABUFX2_140 [_60__3_] response_get_3_ d_lut_BUFX2
ABUFX2_141 [_60__4_] response_get_4_ d_lut_BUFX2
ABUFX2_142 [_60__5_] response_get_5_ d_lut_BUFX2
ABUFX2_143 [_60__6_] response_get_6_ d_lut_BUFX2
ADFFPOSX1_1 _0_ CLK_bF$buf50 NULL NULL rgIdle NULL ddflop
AINVX1_14 [RST_N_bF$buf7] _69_ d_lut_INVX1
ANOR2X1_16 [gnd _69_] _70_ d_lut_NOR2X1
AINVX1_15 [EN_request_put] _71_ d_lut_INVX1
AINVX1_16 [_58_] _72_ d_lut_INVX1
AINVX1_17 [CAN_FIRE_RL_rlPutCodeWordIn] _73_ d_lut_INVX1
AOAI21X1_8 [EN_request_put _73_ _72_] _74_ d_lut_OAI21X1
AOAI21X1_9 [CAN_FIRE_RL_rlPutCodeWordIn _71_ _74_] _75_ d_lut_OAI21X1
ANAND2X1_28 [EN_request_put _73_] _76_ d_lut_NAND2X1
AOR2X2_1 [_76_ ffI$EMPTY_N] _77_ d_lut_OR2X2
ANAND3X1_13 [_70_ _75_ _77_] _64_ d_lut_NAND3X1
AINVX1_18 [ffI.data1_reg_0_] _78_ d_lut_INVX1
AINVX1_19 [ffI$EMPTY_N] _79_ d_lut_INVX1
ANOR2X1_17 [_71_ _79_] _80_ d_lut_NOR2X1
ANAND2X1_29 [request_put_0_ _80_] _81_ d_lut_NAND2X1
AOAI21X1_10 [_78_ _80_ _81_] _62__0_ d_lut_OAI21X1
AINVX1_20 [ffI.data1_reg_1_] _82_ d_lut_INVX1
ANAND2X1_30 [request_put_1_ _80_] _83_ d_lut_NAND2X1
AOAI21X1_11 [_82_ _80_ _83_] _62__1_ d_lut_OAI21X1
AINVX1_21 [ffI.data1_reg_2_] _84_ d_lut_INVX1
ANAND2X1_31 [request_put_2_ _80_] _85_ d_lut_NAND2X1
AOAI21X1_12 [_84_ _80_ _85_] _62__2_ d_lut_OAI21X1
AINVX1_22 [ffI.data1_reg_3_] _86_ d_lut_INVX1
ANAND2X1_32 [request_put_3_ _80_] _87_ d_lut_NAND2X1
AOAI21X1_13 [_86_ _80_ _87_] _62__3_ d_lut_OAI21X1
AINVX1_23 [ffI.data1_reg_4_] _88_ d_lut_INVX1
ANAND2X1_33 [request_put_4_ _80_] _89_ d_lut_NAND2X1
AOAI21X1_14 [_88_ _80_ _89_] _62__4_ d_lut_OAI21X1
AINVX1_24 [ffI.data1_reg_5_] _90_ d_lut_INVX1
ANAND2X1_34 [request_put_5_ _80_] _91_ d_lut_NAND2X1
AOAI21X1_15 [_90_ _80_ _91_] _62__5_ d_lut_OAI21X1
AINVX1_25 [ffI.data1_reg_6_] _92_ d_lut_INVX1
ANAND2X1_35 [request_put_6_ _80_] _93_ d_lut_NAND2X1
AOAI21X1_16 [_92_ _80_ _93_] _62__6_ d_lut_OAI21X1
ANAND2X1_36 [CAN_FIRE_RL_rlPutCodeWordIn _71_] _94_ d_lut_NAND2X1
AAND2X2_23 [_76_ _94_] _95_ d_lut_AND2X2
AOAI21X1_17 [_72_ _94_ _70_] _96_ d_lut_OAI21X1
AAOI21X1_1 [_95_ _79_ _96_] _63_ d_lut_AOI21X1
AAOI21X1_2 [_79_ EN_request_put CAN_FIRE_RL_rlPutCodeWordIn] _97_ d_lut_AOI21X1
ANOR2X1_18 [EN_request_put _72_] _98_ d_lut_NOR2X1
AOAI21X1_18 [_98_ _97_ ffI$D_OUT_0_] _99_ d_lut_OAI21X1
ANAND3X1_14 [_58_ CAN_FIRE_RL_rlPutCodeWordIn EN_request_put] _100_ d_lut_NAND3X1
AOAI21X1_19 [_71_ ffI$EMPTY_N _100_] _101_ d_lut_OAI21X1
ANOR2X1_19 [_58_ _73_] _102_ d_lut_NOR2X1
AAOI22X1_1 [ffI.data1_reg_0_ _102_ request_put_0_ _101_] _103_ d_lut_AOI22X1
ANAND2X1_37 [_99_ _103_] _61__0_ d_lut_NAND2X1
AOAI21X1_20 [_98_ _97_ ffI$D_OUT_1_] _104_ d_lut_OAI21X1
AAOI22X1_2 [ffI.data1_reg_1_ _102_ request_put_1_ _101_] _105_ d_lut_AOI22X1
ANAND2X1_38 [_104_ _105_] _61__1_ d_lut_NAND2X1
AOAI21X1_21 [_98_ _97_ ffI$D_OUT_2_] _106_ d_lut_OAI21X1
AAOI22X1_3 [ffI.data1_reg_2_ _102_ request_put_2_ _101_] _107_ d_lut_AOI22X1
ANAND2X1_39 [_106_ _107_] _61__2_ d_lut_NAND2X1
AOAI21X1_22 [_98_ _97_ ffI$D_OUT_3_] _108_ d_lut_OAI21X1
AAOI22X1_4 [ffI.data1_reg_3_ _102_ request_put_3_ _101_] _109_ d_lut_AOI22X1
ANAND2X1_40 [_108_ _109_] _61__3_ d_lut_NAND2X1
AOAI21X1_23 [_98_ _97_ ffI$D_OUT_4_] _110_ d_lut_OAI21X1
AAOI22X1_5 [ffI.data1_reg_4_ _102_ request_put_4_ _101_] _111_ d_lut_AOI22X1
ANAND2X1_41 [_110_ _111_] _61__4_ d_lut_NAND2X1
AOAI21X1_24 [_98_ _97_ ffI$D_OUT_5_] _65_ d_lut_OAI21X1
AAOI22X1_6 [ffI.data1_reg_5_ _102_ request_put_5_ _101_] _66_ d_lut_AOI22X1
ANAND2X1_42 [_65_ _66_] _61__5_ d_lut_NAND2X1
AOAI21X1_25 [_98_ _97_ ffI$D_OUT_6_] _67_ d_lut_OAI21X1
AAOI22X1_7 [ffI.data1_reg_6_ _102_ request_put_6_ _101_] _68_ d_lut_AOI22X1
ANAND2X1_43 [_67_ _68_] _61__6_ d_lut_NAND2X1
ADFFPOSX1_2 _63_ CLK_bF$buf49 NULL NULL ffI$EMPTY_N NULL ddflop
ADFFPOSX1_3 _64_ CLK_bF$buf48 NULL NULL _58_ NULL ddflop
ADFFPOSX1_4 _62__0_ CLK_bF$buf47 NULL NULL ffI.data1_reg_0_ NULL ddflop
ADFFPOSX1_5 _62__1_ CLK_bF$buf46 NULL NULL ffI.data1_reg_1_ NULL ddflop
ADFFPOSX1_6 _62__2_ CLK_bF$buf45 NULL NULL ffI.data1_reg_2_ NULL ddflop
ADFFPOSX1_7 _62__3_ CLK_bF$buf44 NULL NULL ffI.data1_reg_3_ NULL ddflop
ADFFPOSX1_8 _62__4_ CLK_bF$buf43 NULL NULL ffI.data1_reg_4_ NULL ddflop
ADFFPOSX1_9 _62__5_ CLK_bF$buf42 NULL NULL ffI.data1_reg_5_ NULL ddflop
ADFFPOSX1_10 _62__6_ CLK_bF$buf41 NULL NULL ffI.data1_reg_6_ NULL ddflop
ADFFPOSX1_11 _61__0_ CLK_bF$buf40 NULL NULL ffI$D_OUT_0_ NULL ddflop
ADFFPOSX1_12 _61__1_ CLK_bF$buf39 NULL NULL ffI$D_OUT_1_ NULL ddflop
ADFFPOSX1_13 _61__2_ CLK_bF$buf38 NULL NULL ffI$D_OUT_2_ NULL ddflop
ADFFPOSX1_14 _61__3_ CLK_bF$buf37 NULL NULL ffI$D_OUT_3_ NULL ddflop
ADFFPOSX1_15 _61__4_ CLK_bF$buf36 NULL NULL ffI$D_OUT_4_ NULL ddflop
ADFFPOSX1_16 _61__5_ CLK_bF$buf35 NULL NULL ffI$D_OUT_5_ NULL ddflop
ADFFPOSX1_17 _61__6_ CLK_bF$buf34 NULL NULL ffI$D_OUT_6_ NULL ddflop
AINVX1_26 [RST_N_bF$buf6] _120_ d_lut_INVX1
ANOR2X1_20 [gnd _120_] _121_ d_lut_NOR2X1
AINVX1_27 [MUX_rgIdle$write_1__SEL_1] _122_ d_lut_INVX1
AINVX1_28 [ffO$FULL_N] _123_ d_lut_INVX1
AINVX1_29 [EN_response_get] _124_ d_lut_INVX1
AOAI21X1_26 [MUX_rgIdle$write_1__SEL_1 _124_ _123_] _125_ d_lut_OAI21X1
AOAI21X1_27 [EN_response_get _122_ _125_] _126_ d_lut_OAI21X1
ANAND2X1_44 [MUX_rgIdle$write_1__SEL_1 _124_] _127_ d_lut_NAND2X1
AOR2X2_2 [_127_ _59_] _128_ d_lut_OR2X2
ANAND3X1_15 [_121_ _126_ _128_] _115_ d_lut_NAND3X1
AINVX1_30 [ffO.data1_reg_0_] _129_ d_lut_INVX1
AINVX1_31 [_59_] _130_ d_lut_INVX1
ANOR2X1_21 [_122_ _130_] _131_ d_lut_NOR2X1
ANAND2X1_45 [vBitNodes_0$dataOut_get _131_] _132_ d_lut_NAND2X1
AOAI21X1_28 [_129_ _131_ _132_] _113__0_ d_lut_OAI21X1
AINVX1_32 [ffO.data1_reg_1_] _133_ d_lut_INVX1
ANAND2X1_46 [vBitNodes_1$dataOut_get _131_] _134_ d_lut_NAND2X1