*SPEF "IEEE 1481.1999"
*DESIGN "mkLdpcCore"
*DATE "17:26:57 Thursday May 02, 2019"
*VENDOR "unknown"
*PROGRAM "qrouter"
*VERSION "unknown"
*DESIGN_FLOW "qflow"
*DIVIDER /
*DELIMITER :
*BUS_DELIMITER <>
*T_UNIT 1 PS
*C_UNIT 1 FF
*R_UNIT 1 OHM
*L_UNIT 1 HENRY

*NAME_MAP
*1 _80_
*2 NOR2X1_17
*3 OAI21X1_10
*4 NAND2X1_29
*5 NAND2X1_34
*6 OAI21X1_15
*7 NAND2X1_35
*8 OAI21X1_16
*9 OAI21X1_14
*10 NAND2X1_33
*11 OAI21X1_12
*12 NAND2X1_31
*13 NAND2X1_32
*14 NAND2X1_30
*15 OAI21X1_11
*16 OAI21X1_13
*17 _131_
*18 NOR2X1_21
*19 NAND2X1_46
*20 OAI21X1_34
*21 NAND2X1_51
*22 OAI21X1_31
*23 NAND2X1_48
*24 OAI21X1_28
*25 NAND2X1_45
*26 OAI21X1_29
*27 NAND2X1_50
*28 OAI21X1_33
*29 OAI21X1_30
*30 NAND2X1_47
*31 OAI21X1_32
*32 NAND2X1_49
*33 CAN_FIRE_RL_mkConnectionGetPut
*34 AND2X2_1
*35 AND2X2_33
*36 XNOR2X1_5
*37 OAI21X1_65
*38 NAND3X1_26
*39 INVX1_62
*40 NAND2X1_82
*41 NAND2X1_84
*42 NAND2X1_320
*43 XNOR2X1_47
*44 INVX1_358
*45 OAI21X1_324
*46 NAND2X1_322
*47 CAN_FIRE_RL_mkConnectionGetPut_1
*48 AND2X2_2
*49 INVX1_104
*50 NAND2X1_116
*51 XNOR2X1_11
*52 NAND3X1_38
*53 AND2X2_40
*54 NAND2X1_118
*55 OAI21X1_102
*56 NAND2X1_327
*57 INVX1_365
*58 OAI21X1_330
*59 NAND2X1_325
*60 XNOR2X1_48
*61 CAN_FIRE_RL_mkConnectionGetPut_2
*62 AND2X2_3
*63 AND2X2_54
*64 NAND2X1_184
*65 INVX1_188
*66 NAND2X1_186
*67 NAND3X1_62
*68 OAI21X1_176
*69 XNOR2X1_23
*70 NAND2X1_332
*71 OAI21X1_336
*72 NAND2X1_330
*73 XNOR2X1_49
*74 INVX1_372
*75 CAN_FIRE_RL_mkConnectionGetPut_3
*76 AND2X2_4
*77 INVX1_111
*78 AND2X2_41
*79 OAI21X1_108
*80 NAND3X1_40
*81 NAND2X1_123
*82 XNOR2X1_12
*83 NAND2X1_121
*84 NAND2X1_355
*85 XNOR2X1_53
*86 INVX1_400
*87 NAND2X1_353
*88 OAI21X1_360
*89 CAN_FIRE_RL_mkConnectionGetPut_4
*90 AND2X2_5
*91 OAI21X1_139
*92 INVX1_146
*93 NAND2X1_152
*94 NAND3X1_50
*95 INVX1_407
*96 NAND2X1_360
*97 OAI21X1_366
*98 XNOR2X1_54
*99 NAND2X1_358
*100 XNOR2X1_17
*101 AND2X2_47
*102 NAND2X1_150
*103 CAN_FIRE_RL_mkConnectionGetPut_5
*104 AND2X2_6
*105 XNOR2X1_55
*106 INVX1_414
*107 NAND2X1_365
*108 NAND2X1_363
*109 OAI21X1_372
*110 XNOR2X1_29
*111 INVX1_230
*112 NAND3X1_74
*113 NAND2X1_218
*114 OAI21X1_213
*115 NAND2X1_220
*116 AND2X2_61
*117 CAN_FIRE_RL_mkConnectionGetPut_6
*118 AND2X2_7
*119 AND2X2_48
*120 NAND2X1_155
*121 NAND2X1_157
*122 OAI21X1_145
*123 XNOR2X1_18
*124 INVX1_153
*125 NAND3X1_52
*126 NAND2X1_386
*127 XNOR2X1_59
*128 OAI21X1_396
*129 NAND2X1_388
*130 INVX1_442
*131 CAN_FIRE_RL_mkConnectionGetPut_7
*132 AND2X2_8
*133 NAND2X1_393
*134 XNOR2X1_60
*135 INVX1_449
*136 OAI21X1_402
*137 NAND2X1_391
*138 OAI21X1_182
*139 XNOR2X1_24
*140 INVX1_195
*141 NAND2X1_191
*142 NAND2X1_189
*143 AND2X2_55
*144 NAND3X1_64
*145 CAN_FIRE_RL_mkConnectionGetPut_8
*146 AND2X2_9
*147 NAND2X1_398
*148 NAND2X1_396
*149 OAI21X1_408
*150 INVX1_456
*151 XNOR2X1_61
*152 NAND2X1_254
*153 NAND3X1_86
*154 INVX1_272
*155 NAND2X1_252
*156 OAI21X1_250
*157 XNOR2X1_35
*158 AND2X2_68
*159 CAN_FIRE_RL_mkConnectionGetPut_9
*160 AND2X2_10
*161 XNOR2X1_65
*162 INVX1_484
*163 NAND2X1_419
*164 OAI21X1_432
*165 NAND2X1_421
*166 INVX1_202
*167 AND2X2_56
*168 NAND2X1_194
*169 NAND2X1_196
*170 XNOR2X1_25
*171 NAND3X1_66
*172 OAI21X1_188
*173 CAN_FIRE_RL_mkConnectionGetPut_10
*174 AND2X2_11
*175 NAND2X1_223
*176 NAND2X1_225
*177 NAND3X1_76
*178 XNOR2X1_30
*179 INVX1_237
*180 OAI21X1_219
*181 AND2X2_62
*182 NAND2X1_424
*183 OAI21X1_438
*184 INVX1_491
*185 NAND2X1_426
*186 XNOR2X1_66
*187 CAN_FIRE_RL_mkConnectionGetPut_11
*188 AND2X2_12
*189 AND2X2_75
*190 NAND2X1_286
*191 OAI21X1_287
*192 XNOR2X1_41
*193 NAND3X1_98
*194 INVX1_314
*195 NAND2X1_288
*196 INVX1_498
*197 OAI21X1_444
*198 NAND2X1_429
*199 XNOR2X1_67
*200 NAND2X1_431
*201 CAN_FIRE_RL_mkConnectionGetPut_12
*202 AND2X2_13
*203 XNOR2X1_6
*204 NAND3X1_28
*205 NAND2X1_89
*206 OAI21X1_71
*207 AND2X2_34
*208 INVX1_69
*209 NAND2X1_87
*210 NAND2X1_452
*211 XNOR2X1_71
*212 OAI21X1_468
*213 NAND2X1_454
*214 INVX1_526
*215 CAN_FIRE_RL_mkConnectionGetPut_13
*216 AND2X2_14
*217 AND2X2_63
*218 NAND2X1_228
*219 OAI21X1_225
*220 NAND3X1_78
*221 NAND2X1_230
*222 INVX1_244
*223 XNOR2X1_31
*224 XNOR2X1_72
*225 OAI21X1_474
*226 INVX1_533
*227 NAND2X1_459
*228 NAND2X1_457
*229 CAN_FIRE_RL_mkConnectionGetPut_14
*230 AND2X2_15
*231 AND2X2_69
*232 NAND2X1_464
*233 NAND2X1_462
*234 OAI21X1_480
*235 XNOR2X1_73
*236 INVX1_540
*237 OAI21X1_256
*238 NAND2X1_259
*239 INVX1_279
*240 XNOR2X1_36
*241 NAND3X1_88
*242 NAND2X1_257
*243 CAN_FIRE_RL_mkConnectionGetPut_15
*244 AND2X2_16
*245 OAI21X1_504
*246 INVX1_568
*247 NAND2X1_485
*248 XNOR2X1_77
*249 AND2X2_42
*250 NAND2X1_126
*251 INVX1_118
*252 XNOR2X1_13
*253 NAND3X1_42
*254 OAI21X1_114
*255 NAND2X1_128
*256 NAND2X1_487
*257 CAN_FIRE_RL_mkConnectionGetPut_16
*258 AND2X2_17
*259 NAND2X1_490
*260 OAI21X1_510
*261 INVX1_575
*262 XNOR2X1_78
*263 NAND2X1_492
*264 AND2X2_70
*265 NAND2X1_262
*266 NAND2X1_264
*267 NAND3X1_90
*268 XNOR2X1_37
*269 OAI21X1_262
*270 INVX1_286
*271 CAN_FIRE_RL_mkConnectionGetPut_17
*272 AND2X2_18
*273 NAND2X1_497
*274 INVX1_582
*275 OAI21X1_516
*276 NAND2X1_495
*277 XNOR2X1_79
*278 XNOR2X1_42
*279 NAND2X1_293
*280 NAND3X1_100
*281 OAI21X1_293
*282 INVX1_321
*283 AND2X2_76
*284 NAND2X1_291
*285 CAN_FIRE_RL_mkConnectionGetPut_18
*286 AND2X2_19
*287 AND2X2_35
*288 NAND2X1_92
*289 INVX1_76
*290 OAI21X1_77
*291 NAND3X1_30
*292 XNOR2X1_7
*293 NAND2X1_94
*294 XNOR2X1_83
*295 NAND2X1_518
*296 OAI21X1_540
*297 NAND2X1_520
*298 INVX1_610
*299 CAN_FIRE_RL_mkConnectionGetPut_19
*300 AND2X2_20
*301 OAI21X1_546
*302 NAND2X1_523
*303 NAND2X1_525
*304 INVX1_617
*305 XNOR2X1_84
*306 OAI21X1_151
*307 NAND3X1_54
*308 XNOR2X1_19
*309 NAND2X1_162
*310 NAND2X1_160
*311 AND2X2_49
*312 INVX1_160
*313 CAN_FIRE_RL_mkConnectionGetPut_20
*314 AND2X2_21
*315 NAND2X1_296
*316 AND2X2_77
*317 OAI21X1_552
*318 NAND2X1_530
*319 INVX1_624
*320 NAND2X1_528
*321 XNOR2X1_85
*322 INVX1_328
*323 NAND2X1_298
*324 XNOR2X1_43
*325 OAI21X1_299
*326 NAND3X1_102
*327 vBitNodes_4_dataOut_get
*328 DFFPOSX1_139
*329 AOI22X1_12
*330 NAND2X1_49
*331 OR2X2_5
*332 NAND2X1_62
*333 NOR2X1_25
*334 AND2X2_27
*335 OR2X2_4
*336 NAND2X1_61
*337 NOR2X1_24
*338 NAND3X1_9
*339 AND2X2_25
*340 INVX1_228
*341 vBitNodes_0_CAN_FIRE_RL_rlProcessNewData
*342 AND2X2_29
*343 XNOR2X1_2
*344 OAI21X1_46
*345 NAND3X1_20
*346 INVX1_41
*347 NAND2X1_65
*348 AND2X2_30
*349 NAND2X1_67
*350 XNOR2X1_3
*351 NAND2X1_71
*352 OAI21X1_53
*353 NAND2X1_73
*354 INVX1_50
*355 vBitNodes_1_CAN_FIRE_RL_rlProcessNewData
*356 AND2X2_36
*357 NAND2X1_107
*358 INVX1_83
*359 NAND3X1_32
*360 NAND2X1_101
*361 XNOR2X1_8
*362 OAI21X1_83
*363 AND2X2_37
*364 NAND2X1_99
*365 OAI21X1_90
*366 INVX1_92
*367 NAND2X1_105
*368 XNOR2X1_9
*369 vBitNodes_2_CAN_FIRE_RL_rlProcessNewData
*370 AND2X2_43
*371 NAND2X1_141
*372 OAI21X1_127
*373 NAND2X1_139
*374 INVX1_134
*375 XNOR2X1_15
*376 XNOR2X1_14
*377 OAI21X1_120
*378 NAND3X1_44
*379 AND2X2_44
*380 INVX1_125
*381 NAND2X1_135
*382 NAND2X1_133
*383 vBitNodes_3_CAN_FIRE_RL_rlProcessNewData
*384 AND2X2_50
*385 NAND2X1_175
*386 INVX1_176
*387 OAI21X1_164
*388 NAND2X1_173
*389 XNOR2X1_21
*390 AND2X2_51
*391 NAND2X1_167
*392 NAND3X1_56
*393 XNOR2X1_20
*394 OAI21X1_157
*395 INVX1_167
*396 NAND2X1_169
*397 vBitNodes_4_CAN_FIRE_RL_rlProcessNewData
*398 AND2X2_57
*399 NAND2X1_209
*400 INVX1_218
*401 XNOR2X1_27
*402 NAND2X1_207
*403 OAI21X1_201
*404 NAND2X1_201
*405 AND2X2_58
*406 NAND3X1_68
*407 INVX1_209
*408 XNOR2X1_26
*409 OAI21X1_194
*410 NAND2X1_203
*411 vBitNodes_5_CAN_FIRE_RL_rlProcessNewData
*412 AND2X2_64
*413 NAND2X1_243
*414 INVX1_260
*415 OAI21X1_238
*416 NAND2X1_241
*417 OAI21X1_231
*418 NAND3X1_80
*419 NAND2X1_235
*420 NAND2X1_237
*421 INVX1_251
*422 AND2X2_65
*423 XNOR2X1_32
*424 XNOR2X1_33
*425 vBitNodes_6_CAN_FIRE_RL_rlProcessNewData
*426 AND2X2_71
*427 INVX1_302
*428 OAI21X1_275
*429 XNOR2X1_39
*430 NAND2X1_275
*431 NAND3X1_92
*432 NAND2X1_269
*433 INVX1_293
*434 XNOR2X1_38
*435 OAI21X1_268
*436 NAND2X1_271
*437 AND2X2_72
*438 NAND2X1_277
*439 vBitNodes_0_dataOut_get
*440 DFFPOSX1_43
*441 INVX1_60
*442 OR2X2_5
*443 NAND2X1_62
*444 NOR2X1_25
*445 AND2X2_27
*446 OR2X2_3
*447 NAND2X1_60
*448 XOR2X1_1
*449 NAND3X1_5
*450 NAND2X1_45
*451 AOI22X1_8
*452 RST_N_bF_buf8
*453 BUFX2_27
*454 INVX1_96
*455 INVX1_376
*456 INVX1_82
*457 INVX1_341
*458 INVX1_383
*459 INVX1_593
*460 INVX1_124
*461 INVX1_600
*462 INVX1_544
*463 INVX1_306
*464 RST_N_bF_buf7
*465 BUFX2_28
*466 INVX1_460
*467 INVX1_418
*468 INVX1_565
*469 INVX1_495
*470 INVX1_348
*471 INVX1_369
*472 INVX1_439
*473 INVX1_411
*474 INVX1_138
*475 INVX1_117
*476 RST_N_bF_buf6
*477 BUFX2_29
*478 INVX1_502
*479 INVX1_215
*480 INVX1_327
*481 INVX1_621
*482 INVX1_586
*483 INVX1_334
*484 INVX1_131
*485 INVX1_40
*486 INVX1_89
*487 INVX1_47
*488 RST_N_bF_buf5
*489 BUFX2_30
*490 INVX1_320
*491 INVX1_313
*492 INVX1_390
*493 INVX1_607
*494 INVX1_208
*495 NAND3X1_12
*496 INVX1_173
*497 INVX1_355
*498 INVX1_14
*499 INVX1_509
*500 RST_N_bF_buf4
*501 BUFX2_31
*502 INVX1_432
*503 INVX1_250
*504 INVX1_453
*505 INVX1_26
*506 INVX1_446
*507 INVX1_180
*508 INVX1_194
*509 INVX1_187
*510 INVX1_201
*511 INVX1_222
*512 RST_N_bF_buf3
*513 BUFX2_32
*514 INVX1_61
*515 INVX1_467
*516 INVX1_68
*517 INVX1_523
*518 INVX1_75
*519 INVX1_278
*520 INVX1_537
*521 INVX1_285
*522 INVX1_572
*523 INVX1_264
*524 RST_N
*525 BUFX2_29
*526 BUFX2_30
*527 BUFX2_35
*528 BUFX2_27
*529 BUFX2_28
*530 BUFX2_34
*531 BUFX2_31
*532 BUFX2_33
*533 BUFX2_32
*534 RST_N_bF_buf2
*535 BUFX2_33
*536 INVX1_516
*537 INVX1_257
*538 INVX1_54
*539 INVX1_530
*540 INVX1_299
*541 INVX1_271
*542 INVX1_292
*543 INVX1_551
*544 INVX1_579
*545 RST_N_bF_buf1
*546 BUFX2_34
*547 INVX1_229
*548 INVX1_243
*549 INVX1_488
*550 INVX1_425
*551 INVX1_558
*552 INVX1_474
*553 INVX1_236
*554 INVX1_481
*555 INVX1_166
*556 RST_N_bF_buf0
*557 BUFX2_35
*558 INVX1_110
*559 INVX1_103
*560 INVX1_152
*561 INVX1_145
*562 INVX1_404
*563 INVX1_362
*564 INVX1_397
*565 INVX1_614
*566 INVX1_159
*567 fnCheckDecodedWord___d200
*568 NAND3X1_17
*569 NAND3X1_10
*570 INVX1_5
*571 NAND3X1_8
*572 NAND3X1_5
*573 NAND3X1_9
*574 NAND2X1_23
*575 NAND3X1_11
*576 NAND3X1_6
*577 NAND3X1_7
*578 vBitNodes_5_dataOut_get
*579 DFFPOSX1_163
*580 NAND3X1_19
*581 INVX1_39
*582 NOR2X1_26
*583 XNOR2X1_1
*584 NAND3X1_10
*585 AND2X2_28
*586 INVX1_270
*587 NAND2X1_50
*588 AOI22X1_13
*589 CLK_hier0_bF_buf6
*590 BUFX2_1
*591 CLKBUF1_8
*592 CLKBUF1_36
*593 CLKBUF1_33
*594 CLKBUF1_10
*595 CLKBUF1_15
*596 CLKBUF1_43
*597 CLKBUF1_27
*598 CLKBUF1_30
*599 CLK_hier0_bF_buf5
*600 BUFX2_2
*601 CLKBUF1_40
*602 CLKBUF1_32
*603 CLKBUF1_47
*604 CLKBUF1_42
*605 CLKBUF1_23
*606 CLKBUF1_17
*607 CLKBUF1_25
*608 CLKBUF1_29
*609 CLK_bF_buf50
*610 CLKBUF1_1
*611 DFFPOSX1_229
*612 DFFPOSX1_227
*613 DFFPOSX1_81
*614 DFFPOSX1_75
*615 DFFPOSX1_246
*616 DFFPOSX1_66
*617 DFFPOSX1_79
*618 DFFPOSX1_80
*619 CLK_bF_buf49
*620 CLKBUF1_2
*621 DFFPOSX1_86
*622 DFFPOSX1_349
*623 DFFPOSX1_205
*624 DFFPOSX1_348
*625 DFFPOSX1_368
*626 DFFPOSX1_89
*627 DFFPOSX1_87
*628 DFFPOSX1_346
*629 CLK_bF_buf48
*630 CLKBUF1_3
*631 DFFPOSX1_64
*632 DFFPOSX1_369
*633 DFFPOSX1_62
*634 DFFPOSX1_61
*635 DFFPOSX1_58
*636 DFFPOSX1_195
*637 DFFPOSX1_199
*638 DFFPOSX1_300
*639 CLK_bF_buf47
*640 CLKBUF1_4
*641 DFFPOSX1_288
*642 DFFPOSX1_146
*643 DFFPOSX1_286
*644 DFFPOSX1_291
*645 DFFPOSX1_109
*646 DFFPOSX1_289
*647 DFFPOSX1_106
*648 DFFPOSX1_108
*649 CLK_bF_buf46
*650 CLKBUF1_5
*651 DFFPOSX1_3
*652 DFFPOSX1_302
*653 DFFPOSX1_2
*654 DFFPOSX1_278
*655 DFFPOSX1_131
*656 DFFPOSX1_16
*657 DFFPOSX1_133
*658 DFFPOSX1_14
*659 CLK_bF_buf45
*660 CLKBUF1_6
*661 DFFPOSX1_269
*662 DFFPOSX1_31
*663 DFFPOSX1_28
*664 DFFPOSX1_268
*665 DFFPOSX1_125
*666 DFFPOSX1_267
*667 DFFPOSX1_117
*668 DFFPOSX1_29
*669 CLK_bF_buf44
*670 CLKBUF1_7
*671 DFFPOSX1_235
*672 DFFPOSX1_201
*673 DFFPOSX1_237
*674 DFFPOSX1_194
*675 DFFPOSX1_63
*676 DFFPOSX1_366
*677 DFFPOSX1_367
*678 DFFPOSX1_198
*679 CLK_bF_buf43
*680 CLKBUF1_8
*681 DFFPOSX1_252
*682 DFFPOSX1_78
*683 DFFPOSX1_249
*684 DFFPOSX1_250
*685 DFFPOSX1_91
*686 DFFPOSX1_90
*687 DFFPOSX1_93
*688 DFFPOSX1_247
*689 CLK_bF_buf42
*690 CLKBUF1_9
*691 DFFPOSX1_360
*692 DFFPOSX1_359
*693 DFFPOSX1_358
*694 DFFPOSX1_1
*695 DFFPOSX1_215
*696 DFFPOSX1_342
*697 DFFPOSX1_217
*698 DFFPOSX1_113
*699 CLK_bF_buf41
*700 CLKBUF1_10
*701 DFFPOSX1_265
*702 DFFPOSX1_262
*703 DFFPOSX1_224
*704 DFFPOSX1_256
*705 DFFPOSX1_222
*706 DFFPOSX1_223
*707 DFFPOSX1_92
*708 DFFPOSX1_264
*709 CLK_bF_buf40
*710 CLKBUF1_11
*711 DFFPOSX1_183
*712 DFFPOSX1_182
*713 DFFPOSX1_44
*714 DFFPOSX1_316
*715 DFFPOSX1_317
*716 DFFPOSX1_42
*717 DFFPOSX1_45
*718 DFFPOSX1_43
*719 CLK_bF_buf39
*720 CLKBUF1_12
*721 DFFPOSX1_298
*722 DFFPOSX1_5
*723 DFFPOSX1_299
*724 DFFPOSX1_41
*725 DFFPOSX1_38
*726 DFFPOSX1_65
*727 DFFPOSX1_136
*728 DFFPOSX1_301
*729 _42_
*730 NOR2X1_15
*731 NAND3X1_10
*732 NAND3X1_8
*733 NAND2X1_27
*734 NAND3X1_5
*735 NAND3X1_9
*736 NAND3X1_11
*737 NAND3X1_6
*738 NAND3X1_7
*739 vBitNodes_3_dataOut_get
*740 DFFPOSX1_115
*741 NAND2X1_48
*742 AOI22X1_11
*743 NAND2X1_61
*744 OR2X2_4
*745 NOR2X1_24
*746 AND2X2_25
*747 NAND3X1_8
*748 INVX1_186
*749 CLK
*750 BUFX2_6
*751 BUFX2_2
*752 BUFX2_3
*753 BUFX2_1
*754 BUFX2_7
*755 BUFX2_5
*756 BUFX2_4
*757 CLK_hier0_bF_buf4
*758 BUFX2_3
*759 CLKBUF1_19
*760 CLKBUF1_1
*761 CLKBUF1_48
*762 CLKBUF1_41
*763 CLKBUF1_14
*764 CLKBUF1_39
*765 CLKBUF1_50
*766 CLK_hier0_bF_buf3
*767 BUFX2_4
*768 CLKBUF1_51
*769 CLKBUF1_22
*770 CLKBUF1_26
*771 CLKBUF1_21
*772 CLKBUF1_18
*773 CLKBUF1_5
*774 CLKBUF1_9
*775 CLK_hier0_bF_buf2
*776 BUFX2_5
*777 CLKBUF1_35
*778 CLKBUF1_31
*779 CLKBUF1_16
*780 CLKBUF1_4
*781 CLKBUF1_45
*782 CLKBUF1_6
*783 CLKBUF1_49
*784 CLK_hier0_bF_buf1
*785 BUFX2_6
*786 CLKBUF1_11
*787 CLKBUF1_28
*788 CLKBUF1_37
*789 CLKBUF1_13
*790 CLKBUF1_20
*791 CLKBUF1_38
*792 CLKBUF1_46
*793 CLK_hier0_bF_buf0
*794 BUFX2_7
*795 CLKBUF1_34
*796 CLKBUF1_12
*797 CLKBUF1_44
*798 CLKBUF1_7
*799 CLKBUF1_3
*800 CLKBUF1_2
*801 CLKBUF1_24
*802 vBitNodes_0_EN_codeIn_put
*803 NAND2X1_24
*804 BUFX2_55
*805 BUFX2_53
*806 BUFX2_56
*807 BUFX2_50
*808 BUFX2_54
*809 BUFX2_51
*810 BUFX2_52
*811 vBitNodes_0_EN_codeIn_put_bF_buf6
*812 BUFX2_50
*813 AND2X2_45
*814 NAND2X1_138
*815 INVX1_132
*816 NAND3X1_46
*817 NAND2X1_140
*818 XNOR2X1_15
*819 OAI21X1_126
*820 vBitNodes_0_EN_codeIn_put_bF_buf5
*821 BUFX2_51
*822 OAI21X1_237
*823 AND2X2_66
*824 AND2X2_73
*825 NAND3X1_82
*826 NAND2X1_242
*827 INVX1_258
*828 NAND2X1_274
*829 vBitNodes_0_EN_codeIn_put_bF_buf4
*830 BUFX2_52
*831 NAND2X1_240
*832 XNOR2X1_33
*833 XNOR2X1_39
*834 OAI21X1_274
*835 NAND3X1_94
*836 NAND2X1_276
*837 INVX1_300
*838 vBitNodes_0_EN_codeIn_put_bF_buf3
*839 BUFX2_53
*840 XNOR2X1_9
*841 NAND2X1_106
*842 NAND3X1_34
*843 OAI21X1_89
*844 INVX1_90
*845 NAND2X1_104
*846 AND2X2_38
*847 vBitNodes_0_EN_codeIn_put_bF_buf2
*848 BUFX2_54
*849 AND2X2_52
*850 INVX1_174
*851 NAND3X1_58
*852 OAI21X1_163
*853 NAND2X1_174
*854 XNOR2X1_21
*855 NAND2X1_172
*856 vBitNodes_0_EN_codeIn_put_bF_buf1
*857 BUFX2_55
*858 AND2X2_59
*859 NAND2X1_208
*860 OAI21X1_200
*861 NAND3X1_70
*862 XNOR2X1_27
*863 INVX1_216
*864 NAND2X1_206
*865 vBitNodes_0_EN_codeIn_put_bF_buf0
*866 BUFX2_56
*867 XNOR2X1_3
*868 NAND2X1_70
*869 AND2X2_31
*870 INVX1_48
*871 OAI21X1_52
*872 NAND2X1_72
*873 NAND3X1_22
*874 CAN_FIRE_RL_rlEvaluateOutput_bF_buf5
*875 BUFX2_67
*876 XNOR2X1_28
*877 NAND2X1_212
*878 NAND2X1_180
*879 INVX1_183
*880 OAI21X1_170
*881 XNOR2X1_22
*882 NAND2X1_178
*883 CLK_bF_buf38
*884 CLKBUF1_13
*885 DFFPOSX1_271
*886 DFFPOSX1_157
*887 DFFPOSX1_272
*888 DFFPOSX1_180
*889 DFFPOSX1_24
*890 DFFPOSX1_22
*891 DFFPOSX1_273
*892 CLK_bF_buf37
*893 CLKBUF1_14
*894 DFFPOSX1_351
*895 DFFPOSX1_203
*896 DFFPOSX1_350
*897 DFFPOSX1_202
*898 DFFPOSX1_204
*899 DFFPOSX1_85
*900 DFFPOSX1_347
*901 CLK_bF_buf36
*902 CLKBUF1_15
*903 DFFPOSX1_248
*904 DFFPOSX1_72
*905 DFFPOSX1_77
*906 DFFPOSX1_71
*907 DFFPOSX1_99
*908 DFFPOSX1_98
*909 DFFPOSX1_263
*910 CLK_bF_buf35
*911 CLKBUF1_16
*912 DFFPOSX1_118
*913 DFFPOSX1_127
*914 DFFPOSX1_148
*915 DFFPOSX1_126
*916 DFFPOSX1_129
*917 DFFPOSX1_121
*918 DFFPOSX1_128
*919 CLK_bF_buf34
*920 CLKBUF1_17
*921 DFFPOSX1_258
*922 DFFPOSX1_285
*923 DFFPOSX1_326
*924 DFFPOSX1_283
*925 DFFPOSX1_145
*926 DFFPOSX1_282
*927 DFFPOSX1_292
*928 CLK_bF_buf33
*929 CLKBUF1_18
*930 DFFPOSX1_4
*931 DFFPOSX1_11
*932 DFFPOSX1_17
*933 DFFPOSX1_9
*934 DFFPOSX1_8
*935 DFFPOSX1_10
*936 DFFPOSX1_6
*937 CLK_bF_buf32
*938 CLKBUF1_19
*939 DFFPOSX1_67
*940 DFFPOSX1_68
*941 DFFPOSX1_324
*942 DFFPOSX1_295
*943 DFFPOSX1_323
*944 DFFPOSX1_228
*945 DFFPOSX1_69
*946 CLK_bF_buf31
*947 CLKBUF1_20
*948 DFFPOSX1_181
*949 DFFPOSX1_169
*950 DFFPOSX1_20
*951 DFFPOSX1_27
*952 DFFPOSX1_26
*953 DFFPOSX1_23
*954 DFFPOSX1_166
*955 CLK_bF_buf30
*956 CLKBUF1_21
*957 DFFPOSX1_304
*958 DFFPOSX1_310
*959 DFFPOSX1_305
*960 DFFPOSX1_303
*961 DFFPOSX1_49
*962 DFFPOSX1_281
*963 DFFPOSX1_312
*964 CLK_bF_buf29
*965 CLKBUF1_22
*966 DFFPOSX1_320
*967 DFFPOSX1_174
*968 DFFPOSX1_175
*969 DFFPOSX1_173
*970 DFFPOSX1_319
*971 DFFPOSX1_177
*972 DFFPOSX1_176
*973 CLK_bF_buf28
*974 CLKBUF1_23
*975 DFFPOSX1_297
*976 DFFPOSX1_253
*977 DFFPOSX1_296
*978 DFFPOSX1_334
*979 DFFPOSX1_336
*980 DFFPOSX1_294
*981 DFFPOSX1_357
*982 CLK_bF_buf27
*983 CLKBUF1_24
*984 DFFPOSX1_36
*985 DFFPOSX1_40
*986 DFFPOSX1_39
*987 DFFPOSX1_34
*988 DFFPOSX1_37
*989 DFFPOSX1_35
*990 DFFPOSX1_88
*991 CLK_bF_buf26
*992 CLKBUF1_25
*993 DFFPOSX1_308
*994 DFFPOSX1_307
*995 DFFPOSX1_314
*996 DFFPOSX1_46
*997 DFFPOSX1_280
*998 DFFPOSX1_279
*999 DFFPOSX1_343
*1000 CLK_bF_buf25
*1001 CLKBUF1_26
*1002 DFFPOSX1_313
*1003 DFFPOSX1_52
*1004 DFFPOSX1_53
*1005 DFFPOSX1_55
*1006 DFFPOSX1_51
*1007 DFFPOSX1_47
*1008 DFFPOSX1_48
*1009 CLK_bF_buf24
*1010 CLKBUF1_27
*1011 DFFPOSX1_96
*1012 DFFPOSX1_243
*1013 DFFPOSX1_103
*1014 DFFPOSX1_245
*1015 DFFPOSX1_242
*1016 DFFPOSX1_97
*1017 DFFPOSX1_218
*1018 CLK_bF_buf23
*1019 CLKBUF1_28
*1020 DFFPOSX1_30
*1021 DFFPOSX1_167
*1022 DFFPOSX1_33
*1023 DFFPOSX1_18
*1024 DFFPOSX1_32
*1025 DFFPOSX1_19
*1026 DFFPOSX1_21
*1027 CLK_bF_buf22
*1028 CLKBUF1_29
*1029 DFFPOSX1_309
*1030 DFFPOSX1_306
*1031 DFFPOSX1_329
*1032 DFFPOSX1_159
*1033 DFFPOSX1_155
*1034 DFFPOSX1_161
*1035 DFFPOSX1_315
*1036 CLK_bF_buf21
*1037 CLKBUF1_30
*1038 DFFPOSX1_221
*1039 DFFPOSX1_220
*1040 DFFPOSX1_104
*1041 DFFPOSX1_102
*1042 DFFPOSX1_363
*1043 DFFPOSX1_105
*1044 DFFPOSX1_244
*1045 CLK_bF_buf20
*1046 CLKBUF1_31
*1047 DFFPOSX1_147
*1048 DFFPOSX1_142
*1049 DFFPOSX1_144
*1050 DFFPOSX1_293
*1051 DFFPOSX1_149
*1052 DFFPOSX1_287
*1053 DFFPOSX1_143
*1054 CLK_bF_buf19
*1055 CLKBUF1_32
*1056 DFFPOSX1_356
*1057 DFFPOSX1_214
*1058 DFFPOSX1_354
*1059 DFFPOSX1_190
*1060 DFFPOSX1_216
*1061 DFFPOSX1_355
*1062 DFFPOSX1_112
*1063 CLK_bF_buf18
*1064 CLKBUF1_33
*1065 DFFPOSX1_213
*1066 DFFPOSX1_254
*1067 DFFPOSX1_225
*1068 DFFPOSX1_107
*1069 DFFPOSX1_257
*1070 DFFPOSX1_277
*1071 DFFPOSX1_212
*1072 CLK_bF_buf17
*1073 CLKBUF1_34
*1074 DFFPOSX1_7
*1075 DFFPOSX1_134
*1076 DFFPOSX1_12
*1077 DFFPOSX1_13
*1078 DFFPOSX1_130
*1079 DFFPOSX1_135
*1080 DFFPOSX1_15
*1081 CLK_bF_buf16
*1082 CLKBUF1_35
*1083 DFFPOSX1_259
*1084 DFFPOSX1_260
*1085 DFFPOSX1_150
*1086 DFFPOSX1_153
*1087 DFFPOSX1_152
*1088 DFFPOSX1_151
*1089 DFFPOSX1_141
*1090 CLK_bF_buf15
*1091 CLKBUF1_36
*1092 DFFPOSX1_210
*1093 DFFPOSX1_211
*1094 DFFPOSX1_251
*1095 DFFPOSX1_255
*1096 DFFPOSX1_274
*1097 DFFPOSX1_335
*1098 DFFPOSX1_337
*1099 CLK_bF_buf14
*1100 CLKBUF1_37
*1101 DFFPOSX1_158
*1102 DFFPOSX1_178
*1103 DFFPOSX1_156
*1104 DFFPOSX1_179
*1105 DFFPOSX1_154
*1106 DFFPOSX1_261
*1107 DFFPOSX1_160
*1108 CLK_bF_buf13
*1109 CLKBUF1_38
*1110 DFFPOSX1_184
*1111 DFFPOSX1_338
*1112 DFFPOSX1_163
*1113 DFFPOSX1_185
*1114 DFFPOSX1_341
*1115 DFFPOSX1_340
*1116 DFFPOSX1_170
*1117 CLK_bF_buf12
*1118 CLKBUF1_39
*1119 DFFPOSX1_362
*1120 DFFPOSX1_241
*1121 DFFPOSX1_238
*1122 DFFPOSX1_76
*1123 DFFPOSX1_239
*1124 DFFPOSX1_74
*1125 DFFPOSX1_240
*1126 CLK_bF_buf11
*1127 CLKBUF1_40
*1128 DFFPOSX1_361
*1129 DFFPOSX1_193
*1130 DFFPOSX1_196
*1131 DFFPOSX1_189
*1132 DFFPOSX1_186
*1133 DFFPOSX1_187
*1134 DFFPOSX1_188
*1135 CLK_bF_buf10
*1136 CLKBUF1_41
*1137 DFFPOSX1_208
*1138 DFFPOSX1_226
*1139 DFFPOSX1_233
*1140 DFFPOSX1_230
*1141 DFFPOSX1_231
*1142 DFFPOSX1_232
*1143 DFFPOSX1_206
*1144 CLK_bF_buf9
*1145 CLKBUF1_42
*1146 DFFPOSX1_333
*1147 DFFPOSX1_331
*1148 DFFPOSX1_332
*1149 DFFPOSX1_275
*1150 DFFPOSX1_276
*1151 DFFPOSX1_290
*1152 DFFPOSX1_284
*1153 CLK_bF_buf8
*1154 CLKBUF1_43
*1155 DFFPOSX1_219
*1156 DFFPOSX1_73
*1157 DFFPOSX1_95
*1158 DFFPOSX1_94
*1159 DFFPOSX1_100
*1160 DFFPOSX1_101
*1161 DFFPOSX1_70
*1162 CLK_bF_buf7
*1163 CLKBUF1_44
*1164 DFFPOSX1_137
*1165 DFFPOSX1_234
*1166 DFFPOSX1_236
*1167 DFFPOSX1_197
*1168 DFFPOSX1_192
*1169 DFFPOSX1_132
*1170 DFFPOSX1_200
*1171 CLK_bF_buf6
*1172 CLKBUF1_45
*1173 DFFPOSX1_115
*1174 DFFPOSX1_139
*1175 DFFPOSX1_270
*1176 DFFPOSX1_266
*1177 DFFPOSX1_25
*1178 DFFPOSX1_138
*1179 DFFPOSX1_140
*1180 CLK_bF_buf5
*1181 CLKBUF1_46
*1182 DFFPOSX1_165
*1183 DFFPOSX1_164
*1184 DFFPOSX1_339
*1185 DFFPOSX1_171
*1186 DFFPOSX1_172
*1187 DFFPOSX1_168
*1188 DFFPOSX1_162
*1189 CLK_bF_buf4
*1190 CLKBUF1_47
*1191 DFFPOSX1_110
*1192 DFFPOSX1_111
*1193 DFFPOSX1_344
*1194 DFFPOSX1_327
*1195 DFFPOSX1_330
*1196 DFFPOSX1_345
*1197 DFFPOSX1_328
*1198 CLK_bF_buf3
*1199 CLKBUF1_48
*1200 DFFPOSX1_209
*1201 DFFPOSX1_60
*1202 DFFPOSX1_59
*1203 DFFPOSX1_191
*1204 DFFPOSX1_325
*1205 DFFPOSX1_322
*1206 DFFPOSX1_207
*1207 CLK_bF_buf2
*1208 CLKBUF1_49
*1209 DFFPOSX1_123
*1210 DFFPOSX1_122
*1211 DFFPOSX1_116
*1212 DFFPOSX1_114
*1213 DFFPOSX1_120
*1214 DFFPOSX1_119
*1215 DFFPOSX1_124
*1216 CLK_bF_buf1
*1217 CLKBUF1_50
*1218 DFFPOSX1_364
*1219 DFFPOSX1_84
*1220 DFFPOSX1_82
*1221 DFFPOSX1_365
*1222 DFFPOSX1_83
*1223 DFFPOSX1_352
*1224 DFFPOSX1_353
*1225 CLK_bF_buf0
*1226 CLKBUF1_51
*1227 DFFPOSX1_311
*1228 DFFPOSX1_50
*1229 DFFPOSX1_321
*1230 DFFPOSX1_57
*1231 DFFPOSX1_56
*1232 DFFPOSX1_54
*1233 DFFPOSX1_318
*1234 _41_
*1235 NOR3X1_1
*1236 OAI21X1_6
*1237 OAI21X1_4
*1238 OAI21X1_7
*1239 OAI21X1_1
*1240 OAI21X1_3
*1241 OAI21X1_2
*1242 OAI21X1_5
*1243 vBitNodes_1_dataOut_get
*1244 DFFPOSX1_67
*1245 XNOR2X1_1
*1246 NOR2X1_26
*1247 AND2X2_28
*1248 NAND2X1_46
*1249 AOI22X1_9
*1250 NAND3X1_6
*1251 INVX1_102
*1252 vBitNodes_2_dataOut_get
*1253 DFFPOSX1_91
*1254 OR2X2_3
*1255 XOR2X1_1
*1256 NAND2X1_60
*1257 NAND2X1_47
*1258 AOI22X1_10
*1259 NAND3X1_7
*1260 INVX1_144
*1261 _97_
*1262 AOI21X1_2
*1263 OAI21X1_18
*1264 OAI21X1_25
*1265 OAI21X1_22
*1266 OAI21X1_23
*1267 OAI21X1_21
*1268 OAI21X1_20
*1269 OAI21X1_24
*1270 _98_
*1271 NOR2X1_18
*1272 OAI21X1_24
*1273 OAI21X1_25
*1274 OAI21X1_22
*1275 OAI21X1_23
*1276 OAI21X1_21
*1277 OAI21X1_20
*1278 OAI21X1_18
*1279 _101_
*1280 OAI21X1_19
*1281 AOI22X1_1
*1282 AOI22X1_6
*1283 AOI22X1_7
*1284 AOI22X1_5
*1285 AOI22X1_4
*1286 AOI22X1_3
*1287 AOI22X1_2
*1288 _102_
*1289 NOR2X1_19
*1290 AOI22X1_1
*1291 AOI22X1_6
*1292 AOI22X1_7
*1293 AOI22X1_5
*1294 AOI22X1_4
*1295 AOI22X1_3
*1296 AOI22X1_2
*1297 _148_
*1298 AOI21X1_4
*1299 OAI21X1_36
*1300 OAI21X1_43
*1301 OAI21X1_40
*1302 OAI21X1_42
*1303 OAI21X1_41
*1304 OAI21X1_39
*1305 OAI21X1_38
*1306 _149_
*1307 NOR2X1_22
*1308 OAI21X1_36
*1309 OAI21X1_40
*1310 OAI21X1_43
*1311 OAI21X1_42
*1312 OAI21X1_39
*1313 OAI21X1_41
*1314 OAI21X1_38
*1315 _152_
*1316 OAI21X1_37
*1317 AOI22X1_8
*1318 AOI22X1_14
*1319 AOI22X1_11
*1320 AOI22X1_9
*1321 AOI22X1_13
*1322 AOI22X1_12
*1323 AOI22X1_10
*1324 _153_
*1325 NOR2X1_23
*1326 AOI22X1_9
*1327 AOI22X1_13
*1328 AOI22X1_12
*1329 AOI22X1_10
*1330 AOI22X1_11
*1331 AOI22X1_14
*1332 AOI22X1_8
*1333 vBitNodes_0_b2c_get
*1334 DFFPOSX1_35
*1335 INVX1_46
*1336 AND2X2_117
*1337 INVX1_507
*1338 INVX1_591
*1339 AND2X2_135
*1340 INVX1_339
*1341 AND2X2_81
*1342 vBitNodes_1_b2c_get
*1343 DFFPOSX1_59
*1344 INVX1_88
*1345 INVX1_549
*1346 AND2X2_126
*1347 AND2X2_82
*1348 AND2X2_90
*1349 INVX1_346
*1350 INVX1_381
*1351 vBitNodes_2_b2c_get
*1352 DFFPOSX1_83
*1353 INVX1_130
*1354 INVX1_388
*1355 AND2X2_91
*1356 AND2X2_99
*1357 INVX1_423
*1358 INVX1_598
*1359 AND2X2_136
*1360 vBitNodes_3_b2c_get
*1361 DFFPOSX1_107
*1362 INVX1_172
*1363 INVX1_430
*1364 AND2X2_83
*1365 AND2X2_108
*1366 INVX1_465
*1367 INVX1_353
*1368 AND2X2_100
*1369 vBitNodes_4_b2c_get
*1370 DFFPOSX1_131
*1371 INVX1_214
*1372 AND2X2_92
*1373 INVX1_395
*1374 INVX1_472
*1375 AND2X2_109
*1376 INVX1_514
*1377 AND2X2_118
*1378 vBitNodes_5_b2c_get
*1379 DFFPOSX1_155
*1380 INVX1_521
*1381 AND2X2_119
*1382 AND2X2_127
*1383 INVX1_256
*1384 INVX1_556
*1385 INVX1_437
*1386 AND2X2_101
*1387 vBitNodes_6_b2c_get
*1388 DFFPOSX1_179
*1389 INVX1_298
*1390 AND2X2_110
*1391 INVX1_479
*1392 INVX1_563
*1393 AND2X2_128
*1394 AND2X2_137
*1395 INVX1_605
*1396 vCheckNodes_6_CAN_FIRE_RL_rlProcessIteration
*1397 NOR3X1_8
*1398 BUFX2_12
*1399 BUFX2_13
*1400 BUFX2_8
*1401 BUFX2_10
*1402 BUFX2_11
*1403 BUFX2_9
*1404 vCheckNodes_6_CAN_FIRE_RL_rlProcessIteration_bF_buf5
*1405 BUFX2_8
*1406 INVX1_615
*1407 NAND2X1_522
*1408 NAND2X1_524
*1409 OAI21X1_545
*1410 NAND3X1_184
*1411 XNOR2X1_84
*1412 vCheckNodes_6_CAN_FIRE_RL_rlProcessIteration_bF_buf4
*1413 BUFX2_9
*1414 OAI21X1_539
*1415 NAND3X1_182
*1416 NAND2X1_517
*1417 INVX1_608
*1418 NAND2X1_519
*1419 XNOR2X1_83
*1420 vCheckNodes_6_CAN_FIRE_RL_rlProcessIteration_bF_buf3
*1421 BUFX2_10
*1422 AND2X2_140
*1423 NAND2X1_527
*1424 INVX1_622
*1425 NAND2X1_529
*1426 NAND3X1_186
*1427 OAI21X1_551
*1428 vCheckNodes_6_CAN_FIRE_RL_rlProcessIteration_bF_buf2
*1429 BUFX2_11
*1430 AND2X2_138
*1431 NAND2X1_515
*1432 XNOR2X1_82
*1433 NAND2X1_513
*1434 OAI21X1_534
*1435 INVX1_603
*1436 vCheckNodes_6_CAN_FIRE_RL_rlProcessIteration_bF_buf1
*1437 BUFX2_12
*1438 XNOR2X1_85
*1439 NAND2X1_503
*1440 XNOR2X1_80
*1441 INVX1_589
*1442 OAI21X1_522
*1443 NAND2X1_505
*1444 vCheckNodes_6_CAN_FIRE_RL_rlProcessIteration_bF_buf0
*1445 BUFX2_13
*1446 NAND2X1_510
*1447 INVX1_596
*1448 XNOR2X1_81
*1449 NAND2X1_508
*1450 OAI21X1_528
*1451 AND2X2_139
*1452 vBitNodes_4_CAN_FIRE_RL_rlProcessChkNodeResult_bF_buf3
*1453 BUFX2_14
*1454 OAI21X1_214
*1455 INVX1_232
*1456 NAND2X1_219
*1457 NAND2X1_221
*1458 XNOR2X1_29
*1459 OAI21X1_226
*1460 vBitNodes_4_CAN_FIRE_RL_rlProcessChkNodeResult_bF_buf2
*1461 BUFX2_15
*1462 XNOR2X1_31
*1463 OAI21X1_206
*1464 NAND2X1_213
*1465 NAND2X1_231
*1466 INVX1_246
*1467 NAND2X1_229
*1468 vBitNodes_6_CAN_FIRE_RL_rlProcessChkNodeResult_bF_buf3
*1469 BUFX2_18
*1470 INVX1_316
*1471 XNOR2X1_42
*1472 OAI21X1_288
*1473 NAND2X1_287
*1474 INVX1_307
*1475 NAND3X1_96
*1476 vBitNodes_6_CAN_FIRE_RL_rlProcessChkNodeResult_bF_buf2
*1477 BUFX2_19
*1478 INVX1_323
*1479 OAI21X1_294
*1480 NAND2X1_292
*1481 XNOR2X1_41
*1482 NAND2X1_294
*1483 NAND2X1_289
*1484 CAN_FIRE_RL_rlConnect_bF_buf4
*1485 BUFX2_22
*1486 AND2X2_81
*1487 XNOR2X1_44
*1488 OAI21X1_305
*1489 NAND2X1_306
*1490 NAND3X1_104
*1491 INVX1_335
*1492 vCheckNodes_1_CAN_FIRE_RL_rlProcessIteration
*1493 NOR3X1_3
*1494 BUFX2_37
*1495 BUFX2_38
*1496 BUFX2_40
*1497 BUFX2_36
*1498 BUFX2_41
*1499 BUFX2_39
*1500 vCheckNodes_1_CAN_FIRE_RL_rlProcessIteration_bF_buf5
*1501 BUFX2_36
*1502 XNOR2X1_50
*1503 NAND2X1_350
*1504 OAI21X1_354
*1505 NAND2X1_348
*1506 XNOR2X1_52
*1507 INVX1_393
*1508 vCheckNodes_1_CAN_FIRE_RL_rlProcessIteration_bF_buf4
*1509 BUFX2_37
*1510 INVX1_379
*1511 XNOR2X1_51
*1512 NAND2X1_340
*1513 OAI21X1_348
*1514 INVX1_386
*1515 NAND2X1_343
*1516 vCheckNodes_1_CAN_FIRE_RL_rlProcessIteration_bF_buf3
*1517 BUFX2_38
*1518 AND2X2_93
*1519 NAND2X1_345
*1520 OAI21X1_342
*1521 NAND2X1_338
*1522 NAND2X1_352
*1523 AND2X2_95
*1524 vCheckNodes_1_CAN_FIRE_RL_rlProcessIteration_bF_buf2
*1525 BUFX2_39
*1526 OAI21X1_365
*1527 XNOR2X1_54
*1528 NAND2X1_359
*1529 INVX1_405
*1530 NAND2X1_357
*1531 NAND3X1_124
*1532 vCheckNodes_1_CAN_FIRE_RL_rlProcessIteration_bF_buf1
*1533 BUFX2_40
*1534 XNOR2X1_55
*1535 INVX1_412
*1536 NAND3X1_126
*1537 OAI21X1_371
*1538 NAND2X1_364
*1539 NAND2X1_362
*1540 vCheckNodes_1_CAN_FIRE_RL_rlProcessIteration_bF_buf0
*1541 BUFX2_41
*1542 INVX1_398
*1543 NAND2X1_354
*1544 XNOR2X1_53
*1545 OAI21X1_359
*1546 NAND3X1_122
*1547 AND2X2_94
*1548 vBitNodes_0_CAN_FIRE_RL_rlProcessChkNodeResult_bF_buf3
*1549 BUFX2_42
*1550 NAND2X1_95
*1551 INVX1_71
*1552 INVX1_78
*1553 OAI21X1_78
*1554 NAND2X1_93
*1555 XNOR2X1_7
*1556 vBitNodes_0_CAN_FIRE_RL_rlProcessChkNodeResult_bF_buf2
*1557 BUFX2_43
*1558 AND2X2_32
*1559 OAI21X1_72
*1560 NAND2X1_88
*1561 NAND2X1_90
*1562 XNOR2X1_6
*1563 NAND2X1_75
*1564 vBitNodes_2_CAN_FIRE_RL_rlProcessChkNodeResult_bF_buf3
*1565 BUFX2_46
*1566 AND2X2_46
*1567 OAI21X1_132
*1568 NAND3X1_48
*1569 NAND2X1_145
*1570 NAND2X1_143
*1571 INVX1_139
*1572 vBitNodes_2_CAN_FIRE_RL_rlProcessChkNodeResult_bF_buf2
*1573 BUFX2_47
*1574 XNOR2X1_18
*1575 NAND2X1_153
*1576 XNOR2X1_17
*1577 INVX1_148
*1578 OAI21X1_140
*1579 NAND2X1_151
*1580 vBitNodes_5_CAN_FIRE_RL_rlProcessChkNodeResult_bF_buf3
*1581 BUFX2_57
*1582 NAND2X1_263
*1583 XNOR2X1_36
*1584 NAND2X1_265
*1585 INVX1_288
*1586 OAI21X1_263
*1587 XNOR2X1_37
*1588 vBitNodes_5_CAN_FIRE_RL_rlProcessChkNodeResult_bF_buf2
*1589 BUFX2_58
*1590 AND2X2_67
*1591 NAND2X1_255
*1592 NAND2X1_253
*1593 XNOR2X1_35
*1594 INVX1_274
*1595 OAI21X1_251
*1596 vCheckNodes_4_CAN_FIRE_RL_rlProcessIteration
*1597 NOR3X1_6
*1598 BUFX2_63
*1599 BUFX2_61
*1600 BUFX2_66
*1601 BUFX2_64
*1602 BUFX2_62
*1603 BUFX2_65
*1604 vCheckNodes_4_CAN_FIRE_RL_rlProcessIteration_bF_buf5
*1605 BUFX2_61
*1606 NAND2X1_444
*1607 NAND2X1_439
*1608 INVX1_505
*1609 XNOR2X1_68
*1610 NAND2X1_437
*1611 OAI21X1_450
*1612 vCheckNodes_4_CAN_FIRE_RL_rlProcessIteration_bF_buf4
*1613 BUFX2_62
*1614 OAI21X1_473
*1615 NAND3X1_160
*1616 XNOR2X1_72
*1617 INVX1_531
*1618 NAND2X1_458
*1619 NAND2X1_456
*1620 vCheckNodes_4_CAN_FIRE_RL_rlProcessIteration_bF_buf3
*1621 BUFX2_63
*1622 INVX1_512
*1623 OAI21X1_456
*1624 NAND2X1_442
*1625 NAND2X1_451
*1626 AND2X2_120
*1627 XNOR2X1_69
*1628 vCheckNodes_4_CAN_FIRE_RL_rlProcessIteration_bF_buf2
*1629 BUFX2_64
*1630 INVX1_538
*1631 NAND2X1_461
*1632 NAND3X1_162
*1633 OAI21X1_479
*1634 NAND2X1_463
*1635 XNOR2X1_73
*1636 vCheckNodes_4_CAN_FIRE_RL_rlProcessIteration_bF_buf1
*1637 BUFX2_65
*1638 AND2X2_121
*1639 NAND2X1_449
*1640 INVX1_519
*1641 XNOR2X1_70
*1642 NAND2X1_447
*1643 OAI21X1_462
*1644 vCheckNodes_4_CAN_FIRE_RL_rlProcessIteration_bF_buf0
*1645 BUFX2_66
*1646 AND2X2_122
*1647 INVX1_524
*1648 OAI21X1_467
*1649 NAND3X1_158
*1650 NAND2X1_453
*1651 XNOR2X1_71
*1652 CAN_FIRE_RL_rlEvaluateOutput
*1653 NOR2X1_12
*1654 BUFX2_68