*SPICE netlist created from BLIF module mkLdpcCore by blif2BSpice
.include /usr/local/share/qflow/tech/osu035/osu035_stdcells.sp
.subckt mkLdpcCore vdd gnd CLK RST_N request_put[0] request_put[1] request_put[2] request_put[3] request_put[4] request_put[5] request_put[6] EN_request_put EN_response_get RDY_request_put response_get[0] response_get[1] response_get[2] response_get[3] response_get[4] response_get[5] response_get[6] RDY_response_get 
XBUFX2_1 vdd gnd CLK CLK_hier0_bF$buf6 BUFX2
XBUFX2_2 vdd gnd CLK CLK_hier0_bF$buf5 BUFX2
XBUFX2_3 vdd gnd CLK CLK_hier0_bF$buf4 BUFX2
XBUFX2_4 vdd gnd CLK CLK_hier0_bF$buf3 BUFX2
XBUFX2_5 vdd gnd CLK CLK_hier0_bF$buf2 BUFX2
XBUFX2_6 vdd gnd CLK CLK_hier0_bF$buf1 BUFX2
XBUFX2_7 vdd gnd CLK CLK_hier0_bF$buf0 BUFX2
XBUFX2_8 vdd gnd vCheckNodes_6.CAN_FIRE_RL_rlProcessIteration vCheckNodes_6.CAN_FIRE_RL_rlProcessIteration_bF$buf5 BUFX2
XBUFX2_9 vdd gnd vCheckNodes_6.CAN_FIRE_RL_rlProcessIteration vCheckNodes_6.CAN_FIRE_RL_rlProcessIteration_bF$buf4 BUFX2
XBUFX2_10 vdd gnd vCheckNodes_6.CAN_FIRE_RL_rlProcessIteration vCheckNodes_6.CAN_FIRE_RL_rlProcessIteration_bF$buf3 BUFX2
XBUFX2_11 vdd gnd vCheckNodes_6.CAN_FIRE_RL_rlProcessIteration vCheckNodes_6.CAN_FIRE_RL_rlProcessIteration_bF$buf2 BUFX2
XBUFX2_12 vdd gnd vCheckNodes_6.CAN_FIRE_RL_rlProcessIteration vCheckNodes_6.CAN_FIRE_RL_rlProcessIteration_bF$buf1 BUFX2
XBUFX2_13 vdd gnd vCheckNodes_6.CAN_FIRE_RL_rlProcessIteration vCheckNodes_6.CAN_FIRE_RL_rlProcessIteration_bF$buf0 BUFX2
XBUFX2_14 vdd gnd vBitNodes_4.CAN_FIRE_RL_rlProcessChkNodeResult vBitNodes_4.CAN_FIRE_RL_rlProcessChkNodeResult_bF$buf3 BUFX2
XBUFX2_15 vdd gnd vBitNodes_4.CAN_FIRE_RL_rlProcessChkNodeResult vBitNodes_4.CAN_FIRE_RL_rlProcessChkNodeResult_bF$buf2 BUFX2
XBUFX2_16 vdd gnd vBitNodes_4.CAN_FIRE_RL_rlProcessChkNodeResult vBitNodes_4.CAN_FIRE_RL_rlProcessChkNodeResult_bF$buf1 BUFX2
XBUFX2_17 vdd gnd vBitNodes_4.CAN_FIRE_RL_rlProcessChkNodeResult vBitNodes_4.CAN_FIRE_RL_rlProcessChkNodeResult_bF$buf0 BUFX2
XBUFX2_18 vdd gnd vBitNodes_6.CAN_FIRE_RL_rlProcessChkNodeResult vBitNodes_6.CAN_FIRE_RL_rlProcessChkNodeResult_bF$buf3 BUFX2
XBUFX2_19 vdd gnd vBitNodes_6.CAN_FIRE_RL_rlProcessChkNodeResult vBitNodes_6.CAN_FIRE_RL_rlProcessChkNodeResult_bF$buf2 BUFX2
XBUFX2_20 vdd gnd vBitNodes_6.CAN_FIRE_RL_rlProcessChkNodeResult vBitNodes_6.CAN_FIRE_RL_rlProcessChkNodeResult_bF$buf1 BUFX2
XBUFX2_21 vdd gnd vBitNodes_6.CAN_FIRE_RL_rlProcessChkNodeResult vBitNodes_6.CAN_FIRE_RL_rlProcessChkNodeResult_bF$buf0 BUFX2
XBUFX2_22 vdd gnd CAN_FIRE_RL_rlConnect CAN_FIRE_RL_rlConnect_bF$buf4 BUFX2
XBUFX2_23 vdd gnd CAN_FIRE_RL_rlConnect CAN_FIRE_RL_rlConnect_bF$buf3 BUFX2
XBUFX2_24 vdd gnd CAN_FIRE_RL_rlConnect CAN_FIRE_RL_rlConnect_bF$buf2 BUFX2
XBUFX2_25 vdd gnd CAN_FIRE_RL_rlConnect CAN_FIRE_RL_rlConnect_bF$buf1 BUFX2
XBUFX2_26 vdd gnd CAN_FIRE_RL_rlConnect CAN_FIRE_RL_rlConnect_bF$buf0 BUFX2
XBUFX2_27 vdd gnd RST_N RST_N_bF$buf8 BUFX2
XBUFX2_28 vdd gnd RST_N RST_N_bF$buf7 BUFX2
XBUFX2_29 vdd gnd RST_N RST_N_bF$buf6 BUFX2
XBUFX2_30 vdd gnd RST_N RST_N_bF$buf5 BUFX2
XBUFX2_31 vdd gnd RST_N RST_N_bF$buf4 BUFX2
XBUFX2_32 vdd gnd RST_N RST_N_bF$buf3 BUFX2
XBUFX2_33 vdd gnd RST_N RST_N_bF$buf2 BUFX2
XBUFX2_34 vdd gnd RST_N RST_N_bF$buf1 BUFX2
XBUFX2_35 vdd gnd RST_N RST_N_bF$buf0 BUFX2
XBUFX2_36 vdd gnd vCheckNodes_1.CAN_FIRE_RL_rlProcessIteration vCheckNodes_1.CAN_FIRE_RL_rlProcessIteration_bF$buf5 BUFX2
XBUFX2_37 vdd gnd vCheckNodes_1.CAN_FIRE_RL_rlProcessIteration vCheckNodes_1.CAN_FIRE_RL_rlProcessIteration_bF$buf4 BUFX2
XBUFX2_38 vdd gnd vCheckNodes_1.CAN_FIRE_RL_rlProcessIteration vCheckNodes_1.CAN_FIRE_RL_rlProcessIteration_bF$buf3 BUFX2
XBUFX2_39 vdd gnd vCheckNodes_1.CAN_FIRE_RL_rlProcessIteration vCheckNodes_1.CAN_FIRE_RL_rlProcessIteration_bF$buf2 BUFX2
XBUFX2_40 vdd gnd vCheckNodes_1.CAN_FIRE_RL_rlProcessIteration vCheckNodes_1.CAN_FIRE_RL_rlProcessIteration_bF$buf1 BUFX2
XBUFX2_41 vdd gnd vCheckNodes_1.CAN_FIRE_RL_rlProcessIteration vCheckNodes_1.CAN_FIRE_RL_rlProcessIteration_bF$buf0 BUFX2
XBUFX2_42 vdd gnd vBitNodes_0.CAN_FIRE_RL_rlProcessChkNodeResult vBitNodes_0.CAN_FIRE_RL_rlProcessChkNodeResult_bF$buf3 BUFX2
XBUFX2_43 vdd gnd vBitNodes_0.CAN_FIRE_RL_rlProcessChkNodeResult vBitNodes_0.CAN_FIRE_RL_rlProcessChkNodeResult_bF$buf2 BUFX2
XBUFX2_44 vdd gnd vBitNodes_0.CAN_FIRE_RL_rlProcessChkNodeResult vBitNodes_0.CAN_FIRE_RL_rlProcessChkNodeResult_bF$buf1 BUFX2
XBUFX2_45 vdd gnd vBitNodes_0.CAN_FIRE_RL_rlProcessChkNodeResult vBitNodes_0.CAN_FIRE_RL_rlProcessChkNodeResult_bF$buf0 BUFX2
XBUFX2_46 vdd gnd vBitNodes_2.CAN_FIRE_RL_rlProcessChkNodeResult vBitNodes_2.CAN_FIRE_RL_rlProcessChkNodeResult_bF$buf3 BUFX2
XBUFX2_47 vdd gnd vBitNodes_2.CAN_FIRE_RL_rlProcessChkNodeResult vBitNodes_2.CAN_FIRE_RL_rlProcessChkNodeResult_bF$buf2 BUFX2
XBUFX2_48 vdd gnd vBitNodes_2.CAN_FIRE_RL_rlProcessChkNodeResult vBitNodes_2.CAN_FIRE_RL_rlProcessChkNodeResult_bF$buf1 BUFX2
XBUFX2_49 vdd gnd vBitNodes_2.CAN_FIRE_RL_rlProcessChkNodeResult vBitNodes_2.CAN_FIRE_RL_rlProcessChkNodeResult_bF$buf0 BUFX2
XBUFX2_50 vdd gnd vBitNodes_0$EN_codeIn_put vBitNodes_0$EN_codeIn_put_bF$buf6 BUFX2
XBUFX2_51 vdd gnd vBitNodes_0$EN_codeIn_put vBitNodes_0$EN_codeIn_put_bF$buf5 BUFX2
XBUFX2_52 vdd gnd vBitNodes_0$EN_codeIn_put vBitNodes_0$EN_codeIn_put_bF$buf4 BUFX2
XBUFX2_53 vdd gnd vBitNodes_0$EN_codeIn_put vBitNodes_0$EN_codeIn_put_bF$buf3 BUFX2
XBUFX2_54 vdd gnd vBitNodes_0$EN_codeIn_put vBitNodes_0$EN_codeIn_put_bF$buf2 BUFX2
XBUFX2_55 vdd gnd vBitNodes_0$EN_codeIn_put vBitNodes_0$EN_codeIn_put_bF$buf1 BUFX2
XBUFX2_56 vdd gnd vBitNodes_0$EN_codeIn_put vBitNodes_0$EN_codeIn_put_bF$buf0 BUFX2
XBUFX2_57 vdd gnd vBitNodes_5.CAN_FIRE_RL_rlProcessChkNodeResult vBitNodes_5.CAN_FIRE_RL_rlProcessChkNodeResult_bF$buf3 BUFX2
XBUFX2_58 vdd gnd vBitNodes_5.CAN_FIRE_RL_rlProcessChkNodeResult vBitNodes_5.CAN_FIRE_RL_rlProcessChkNodeResult_bF$buf2 BUFX2
XBUFX2_59 vdd gnd vBitNodes_5.CAN_FIRE_RL_rlProcessChkNodeResult vBitNodes_5.CAN_FIRE_RL_rlProcessChkNodeResult_bF$buf1 BUFX2
XBUFX2_60 vdd gnd vBitNodes_5.CAN_FIRE_RL_rlProcessChkNodeResult vBitNodes_5.CAN_FIRE_RL_rlProcessChkNodeResult_bF$buf0 BUFX2
XBUFX2_61 vdd gnd vCheckNodes_4.CAN_FIRE_RL_rlProcessIteration vCheckNodes_4.CAN_FIRE_RL_rlProcessIteration_bF$buf5 BUFX2
XBUFX2_62 vdd gnd vCheckNodes_4.CAN_FIRE_RL_rlProcessIteration vCheckNodes_4.CAN_FIRE_RL_rlProcessIteration_bF$buf4 BUFX2
XBUFX2_63 vdd gnd vCheckNodes_4.CAN_FIRE_RL_rlProcessIteration vCheckNodes_4.CAN_FIRE_RL_rlProcessIteration_bF$buf3 BUFX2
XBUFX2_64 vdd gnd vCheckNodes_4.CAN_FIRE_RL_rlProcessIteration vCheckNodes_4.CAN_FIRE_RL_rlProcessIteration_bF$buf2 BUFX2
XBUFX2_65 vdd gnd vCheckNodes_4.CAN_FIRE_RL_rlProcessIteration vCheckNodes_4.CAN_FIRE_RL_rlProcessIteration_bF$buf1 BUFX2
XBUFX2_66 vdd gnd vCheckNodes_4.CAN_FIRE_RL_rlProcessIteration vCheckNodes_4.CAN_FIRE_RL_rlProcessIteration_bF$buf0 BUFX2
XBUFX2_67 vdd gnd CAN_FIRE_RL_rlEvaluateOutput CAN_FIRE_RL_rlEvaluateOutput_bF$buf5 BUFX2
XBUFX2_68 vdd gnd CAN_FIRE_RL_rlEvaluateOutput CAN_FIRE_RL_rlEvaluateOutput_bF$buf4 BUFX2
XBUFX2_69 vdd gnd CAN_FIRE_RL_rlEvaluateOutput CAN_FIRE_RL_rlEvaluateOutput_bF$buf3 BUFX2
XBUFX2_70 vdd gnd CAN_FIRE_RL_rlEvaluateOutput CAN_FIRE_RL_rlEvaluateOutput_bF$buf2 BUFX2
XBUFX2_71 vdd gnd CAN_FIRE_RL_rlEvaluateOutput CAN_FIRE_RL_rlEvaluateOutput_bF$buf1 BUFX2
XBUFX2_72 vdd gnd CAN_FIRE_RL_rlEvaluateOutput CAN_FIRE_RL_rlEvaluateOutput_bF$buf0 BUFX2
XCLKBUF1_1 CLK_hier0_bF$buf4 vdd gnd CLK_bF$buf50 CLKBUF1
XCLKBUF1_2 CLK_hier0_bF$buf0 vdd gnd CLK_bF$buf49 CLKBUF1
XCLKBUF1_3 CLK_hier0_bF$buf0 vdd gnd CLK_bF$buf48 CLKBUF1
XCLKBUF1_4 CLK_hier0_bF$buf2 vdd gnd CLK_bF$buf47 CLKBUF1
XCLKBUF1_5 CLK_hier0_bF$buf3 vdd gnd CLK_bF$buf46 CLKBUF1
XCLKBUF1_6 CLK_hier0_bF$buf2 vdd gnd CLK_bF$buf45 CLKBUF1
XCLKBUF1_7 CLK_hier0_bF$buf0 vdd gnd CLK_bF$buf44 CLKBUF1
XCLKBUF1_8 CLK_hier0_bF$buf6 vdd gnd CLK_bF$buf43 CLKBUF1
XCLKBUF1_9 CLK_hier0_bF$buf3 vdd gnd CLK_bF$buf42 CLKBUF1
XCLKBUF1_10 CLK_hier0_bF$buf6 vdd gnd CLK_bF$buf41 CLKBUF1
XCLKBUF1_11 CLK_hier0_bF$buf1 vdd gnd CLK_bF$buf40 CLKBUF1
XCLKBUF1_12 CLK_hier0_bF$buf0 vdd gnd CLK_bF$buf39 CLKBUF1
XCLKBUF1_13 CLK_hier0_bF$buf1 vdd gnd CLK_bF$buf38 CLKBUF1
XCLKBUF1_14 CLK_hier0_bF$buf4 vdd gnd CLK_bF$buf37 CLKBUF1
XCLKBUF1_15 CLK_hier0_bF$buf6 vdd gnd CLK_bF$buf36 CLKBUF1
XCLKBUF1_16 CLK_hier0_bF$buf2 vdd gnd CLK_bF$buf35 CLKBUF1
XCLKBUF1_17 CLK_hier0_bF$buf5 vdd gnd CLK_bF$buf34 CLKBUF1
XCLKBUF1_18 CLK_hier0_bF$buf3 vdd gnd CLK_bF$buf33 CLKBUF1
XCLKBUF1_19 CLK_hier0_bF$buf4 vdd gnd CLK_bF$buf32 CLKBUF1
XCLKBUF1_20 CLK_hier0_bF$buf1 vdd gnd CLK_bF$buf31 CLKBUF1
XCLKBUF1_21 CLK_hier0_bF$buf3 vdd gnd CLK_bF$buf30 CLKBUF1
XCLKBUF1_22 CLK_hier0_bF$buf3 vdd gnd CLK_bF$buf29 CLKBUF1
XCLKBUF1_23 CLK_hier0_bF$buf5 vdd gnd CLK_bF$buf28 CLKBUF1
XCLKBUF1_24 CLK_hier0_bF$buf0 vdd gnd CLK_bF$buf27 CLKBUF1
XCLKBUF1_25 CLK_hier0_bF$buf5 vdd gnd CLK_bF$buf26 CLKBUF1
XCLKBUF1_26 CLK_hier0_bF$buf3 vdd gnd CLK_bF$buf25 CLKBUF1
XCLKBUF1_27 CLK_hier0_bF$buf6 vdd gnd CLK_bF$buf24 CLKBUF1
XCLKBUF1_28 CLK_hier0_bF$buf1 vdd gnd CLK_bF$buf23 CLKBUF1
XCLKBUF1_29 CLK_hier0_bF$buf5 vdd gnd CLK_bF$buf22 CLKBUF1
XCLKBUF1_30 CLK_hier0_bF$buf6 vdd gnd CLK_bF$buf21 CLKBUF1
XCLKBUF1_31 CLK_hier0_bF$buf2 vdd gnd CLK_bF$buf20 CLKBUF1
XCLKBUF1_32 CLK_hier0_bF$buf5 vdd gnd CLK_bF$buf19 CLKBUF1
XCLKBUF1_33 CLK_hier0_bF$buf6 vdd gnd CLK_bF$buf18 CLKBUF1
XCLKBUF1_34 CLK_hier0_bF$buf0 vdd gnd CLK_bF$buf17 CLKBUF1
XCLKBUF1_35 CLK_hier0_bF$buf2 vdd gnd CLK_bF$buf16 CLKBUF1
XCLKBUF1_36 CLK_hier0_bF$buf6 vdd gnd CLK_bF$buf15 CLKBUF1
XCLKBUF1_37 CLK_hier0_bF$buf1 vdd gnd CLK_bF$buf14 CLKBUF1
XCLKBUF1_38 CLK_hier0_bF$buf1 vdd gnd CLK_bF$buf13 CLKBUF1
XCLKBUF1_39 CLK_hier0_bF$buf4 vdd gnd CLK_bF$buf12 CLKBUF1
XCLKBUF1_40 CLK_hier0_bF$buf5 vdd gnd CLK_bF$buf11 CLKBUF1
XCLKBUF1_41 CLK_hier0_bF$buf4 vdd gnd CLK_bF$buf10 CLKBUF1
XCLKBUF1_42 CLK_hier0_bF$buf5 vdd gnd CLK_bF$buf9 CLKBUF1
XCLKBUF1_43 CLK_hier0_bF$buf6 vdd gnd CLK_bF$buf8 CLKBUF1
XCLKBUF1_44 CLK_hier0_bF$buf0 vdd gnd CLK_bF$buf7 CLKBUF1
XCLKBUF1_45 CLK_hier0_bF$buf2 vdd gnd CLK_bF$buf6 CLKBUF1
XCLKBUF1_46 CLK_hier0_bF$buf1 vdd gnd CLK_bF$buf5 CLKBUF1
XCLKBUF1_47 CLK_hier0_bF$buf5 vdd gnd CLK_bF$buf4 CLKBUF1
XCLKBUF1_48 CLK_hier0_bF$buf4 vdd gnd CLK_bF$buf3 CLKBUF1
XCLKBUF1_49 CLK_hier0_bF$buf2 vdd gnd CLK_bF$buf2 CLKBUF1
XCLKBUF1_50 CLK_hier0_bF$buf4 vdd gnd CLK_bF$buf1 CLKBUF1
XCLKBUF1_51 CLK_hier0_bF$buf3 vdd gnd CLK_bF$buf0 CLKBUF1
XBUFX2_73 vdd gnd CAN_FIRE_RL_rlConnect_1 CAN_FIRE_RL_rlConnect_1_bF$buf4 BUFX2
XBUFX2_74 vdd gnd CAN_FIRE_RL_rlConnect_1 CAN_FIRE_RL_rlConnect_1_bF$buf3 BUFX2
XBUFX2_75 vdd gnd CAN_FIRE_RL_rlConnect_1 CAN_FIRE_RL_rlConnect_1_bF$buf2 BUFX2
XBUFX2_76 vdd gnd CAN_FIRE_RL_rlConnect_1 CAN_FIRE_RL_rlConnect_1_bF$buf1 BUFX2
XBUFX2_77 vdd gnd CAN_FIRE_RL_rlConnect_1 CAN_FIRE_RL_rlConnect_1_bF$buf0 BUFX2
XBUFX2_78 vdd gnd CAN_FIRE_RL_rlConnect_2 CAN_FIRE_RL_rlConnect_2_bF$buf4 BUFX2
XBUFX2_79 vdd gnd CAN_FIRE_RL_rlConnect_2 CAN_FIRE_RL_rlConnect_2_bF$buf3 BUFX2
XBUFX2_80 vdd gnd CAN_FIRE_RL_rlConnect_2 CAN_FIRE_RL_rlConnect_2_bF$buf2 BUFX2
XBUFX2_81 vdd gnd CAN_FIRE_RL_rlConnect_2 CAN_FIRE_RL_rlConnect_2_bF$buf1 BUFX2
XBUFX2_82 vdd gnd CAN_FIRE_RL_rlConnect_2 CAN_FIRE_RL_rlConnect_2_bF$buf0 BUFX2
XBUFX2_83 vdd gnd CAN_FIRE_RL_rlConnect_3 CAN_FIRE_RL_rlConnect_3_bF$buf4 BUFX2
XBUFX2_84 vdd gnd CAN_FIRE_RL_rlConnect_3 CAN_FIRE_RL_rlConnect_3_bF$buf3 BUFX2
XBUFX2_85 vdd gnd CAN_FIRE_RL_rlConnect_3 CAN_FIRE_RL_rlConnect_3_bF$buf2 BUFX2
XBUFX2_86 vdd gnd CAN_FIRE_RL_rlConnect_3 CAN_FIRE_RL_rlConnect_3_bF$buf1 BUFX2
XBUFX2_87 vdd gnd CAN_FIRE_RL_rlConnect_3 CAN_FIRE_RL_rlConnect_3_bF$buf0 BUFX2
XBUFX2_88 vdd gnd CAN_FIRE_RL_rlConnect_4 CAN_FIRE_RL_rlConnect_4_bF$buf4 BUFX2
XBUFX2_89 vdd gnd CAN_FIRE_RL_rlConnect_4 CAN_FIRE_RL_rlConnect_4_bF$buf3 BUFX2
XBUFX2_90 vdd gnd CAN_FIRE_RL_rlConnect_4 CAN_FIRE_RL_rlConnect_4_bF$buf2 BUFX2
XBUFX2_91 vdd gnd CAN_FIRE_RL_rlConnect_4 CAN_FIRE_RL_rlConnect_4_bF$buf1 BUFX2
XBUFX2_92 vdd gnd CAN_FIRE_RL_rlConnect_4 CAN_FIRE_RL_rlConnect_4_bF$buf0 BUFX2
XBUFX2_93 vdd gnd CAN_FIRE_RL_rlConnect_5 CAN_FIRE_RL_rlConnect_5_bF$buf4 BUFX2
XBUFX2_94 vdd gnd CAN_FIRE_RL_rlConnect_5 CAN_FIRE_RL_rlConnect_5_bF$buf3 BUFX2
XBUFX2_95 vdd gnd CAN_FIRE_RL_rlConnect_5 CAN_FIRE_RL_rlConnect_5_bF$buf2 BUFX2
XBUFX2_96 vdd gnd CAN_FIRE_RL_rlConnect_5 CAN_FIRE_RL_rlConnect_5_bF$buf1 BUFX2
XBUFX2_97 vdd gnd CAN_FIRE_RL_rlConnect_5 CAN_FIRE_RL_rlConnect_5_bF$buf0 BUFX2
XBUFX2_98 vdd gnd CAN_FIRE_RL_rlConnect_6 CAN_FIRE_RL_rlConnect_6_bF$buf4 BUFX2
XBUFX2_99 vdd gnd CAN_FIRE_RL_rlConnect_6 CAN_FIRE_RL_rlConnect_6_bF$buf3 BUFX2
XBUFX2_100 vdd gnd CAN_FIRE_RL_rlConnect_6 CAN_FIRE_RL_rlConnect_6_bF$buf2 BUFX2
XBUFX2_101 vdd gnd CAN_FIRE_RL_rlConnect_6 CAN_FIRE_RL_rlConnect_6_bF$buf1 BUFX2
XBUFX2_102 vdd gnd CAN_FIRE_RL_rlConnect_6 CAN_FIRE_RL_rlConnect_6_bF$buf0 BUFX2
XBUFX2_103 vdd gnd vBitNodes_1.CAN_FIRE_RL_rlProcessChkNodeResult vBitNodes_1.CAN_FIRE_RL_rlProcessChkNodeResult_bF$buf3 BUFX2
XBUFX2_104 vdd gnd vBitNodes_1.CAN_FIRE_RL_rlProcessChkNodeResult vBitNodes_1.CAN_FIRE_RL_rlProcessChkNodeResult_bF$buf2 BUFX2
XBUFX2_105 vdd gnd vBitNodes_1.CAN_FIRE_RL_rlProcessChkNodeResult vBitNodes_1.CAN_FIRE_RL_rlProcessChkNodeResult_bF$buf1 BUFX2
XBUFX2_106 vdd gnd vBitNodes_1.CAN_FIRE_RL_rlProcessChkNodeResult vBitNodes_1.CAN_FIRE_RL_rlProcessChkNodeResult_bF$buf0 BUFX2
XBUFX2_107 vdd gnd vBitNodes_3.CAN_FIRE_RL_rlProcessChkNodeResult vBitNodes_3.CAN_FIRE_RL_rlProcessChkNodeResult_bF$buf3 BUFX2
XBUFX2_108 vdd gnd vBitNodes_3.CAN_FIRE_RL_rlProcessChkNodeResult vBitNodes_3.CAN_FIRE_RL_rlProcessChkNodeResult_bF$buf2 BUFX2
XBUFX2_109 vdd gnd vBitNodes_3.CAN_FIRE_RL_rlProcessChkNodeResult vBitNodes_3.CAN_FIRE_RL_rlProcessChkNodeResult_bF$buf1 BUFX2
XBUFX2_110 vdd gnd vBitNodes_3.CAN_FIRE_RL_rlProcessChkNodeResult vBitNodes_3.CAN_FIRE_RL_rlProcessChkNodeResult_bF$buf0 BUFX2
XBUFX2_111 vdd gnd vCheckNodes_2.CAN_FIRE_RL_rlProcessIteration vCheckNodes_2.CAN_FIRE_RL_rlProcessIteration_bF$buf5 BUFX2
XBUFX2_112 vdd gnd vCheckNodes_2.CAN_FIRE_RL_rlProcessIteration vCheckNodes_2.CAN_FIRE_RL_rlProcessIteration_bF$buf4 BUFX2
XBUFX2_113 vdd gnd vCheckNodes_2.CAN_FIRE_RL_rlProcessIteration vCheckNodes_2.CAN_FIRE_RL_rlProcessIteration_bF$buf3 BUFX2
XBUFX2_114 vdd gnd vCheckNodes_2.CAN_FIRE_RL_rlProcessIteration vCheckNodes_2.CAN_FIRE_RL_rlProcessIteration_bF$buf2 BUFX2
XBUFX2_115 vdd gnd vCheckNodes_2.CAN_FIRE_RL_rlProcessIteration vCheckNodes_2.CAN_FIRE_RL_rlProcessIteration_bF$buf1 BUFX2
XBUFX2_116 vdd gnd vCheckNodes_2.CAN_FIRE_RL_rlProcessIteration vCheckNodes_2.CAN_FIRE_RL_rlProcessIteration_bF$buf0 BUFX2
XBUFX2_117 vdd gnd vCheckNodes_0.CAN_FIRE_RL_rlProcessIteration vCheckNodes_0.CAN_FIRE_RL_rlProcessIteration_bF$buf5 BUFX2
XBUFX2_118 vdd gnd vCheckNodes_0.CAN_FIRE_RL_rlProcessIteration vCheckNodes_0.CAN_FIRE_RL_rlProcessIteration_bF$buf4 BUFX2
XBUFX2_119 vdd gnd vCheckNodes_0.CAN_FIRE_RL_rlProcessIteration vCheckNodes_0.CAN_FIRE_RL_rlProcessIteration_bF$buf3 BUFX2
XBUFX2_120 vdd gnd vCheckNodes_0.CAN_FIRE_RL_rlProcessIteration vCheckNodes_0.CAN_FIRE_RL_rlProcessIteration_bF$buf2 BUFX2
XBUFX2_121 vdd gnd vCheckNodes_0.CAN_FIRE_RL_rlProcessIteration vCheckNodes_0.CAN_FIRE_RL_rlProcessIteration_bF$buf1 BUFX2
XBUFX2_122 vdd gnd vCheckNodes_0.CAN_FIRE_RL_rlProcessIteration vCheckNodes_0.CAN_FIRE_RL_rlProcessIteration_bF$buf0 BUFX2
XBUFX2_123 vdd gnd vCheckNodes_5.CAN_FIRE_RL_rlProcessIteration vCheckNodes_5.CAN_FIRE_RL_rlProcessIteration_bF$buf5 BUFX2
XBUFX2_124 vdd gnd vCheckNodes_5.CAN_FIRE_RL_rlProcessIteration vCheckNodes_5.CAN_FIRE_RL_rlProcessIteration_bF$buf4 BUFX2
XBUFX2_125 vdd gnd vCheckNodes_5.CAN_FIRE_RL_rlProcessIteration vCheckNodes_5.CAN_FIRE_RL_rlProcessIteration_bF$buf3 BUFX2
XBUFX2_126 vdd gnd vCheckNodes_5.CAN_FIRE_RL_rlProcessIteration vCheckNodes_5.CAN_FIRE_RL_rlProcessIteration_bF$buf2 BUFX2
XBUFX2_127 vdd gnd vCheckNodes_5.CAN_FIRE_RL_rlProcessIteration vCheckNodes_5.CAN_FIRE_RL_rlProcessIteration_bF$buf1 BUFX2
XBUFX2_128 vdd gnd vCheckNodes_5.CAN_FIRE_RL_rlProcessIteration vCheckNodes_5.CAN_FIRE_RL_rlProcessIteration_bF$buf0 BUFX2
XBUFX2_129 vdd gnd vCheckNodes_3.CAN_FIRE_RL_rlProcessIteration vCheckNodes_3.CAN_FIRE_RL_rlProcessIteration_bF$buf5 BUFX2
XBUFX2_130 vdd gnd vCheckNodes_3.CAN_FIRE_RL_rlProcessIteration vCheckNodes_3.CAN_FIRE_RL_rlProcessIteration_bF$buf4 BUFX2
XBUFX2_131 vdd gnd vCheckNodes_3.CAN_FIRE_RL_rlProcessIteration vCheckNodes_3.CAN_FIRE_RL_rlProcessIteration_bF$buf3 BUFX2
XBUFX2_132 vdd gnd vCheckNodes_3.CAN_FIRE_RL_rlProcessIteration vCheckNodes_3.CAN_FIRE_RL_rlProcessIteration_bF$buf2 BUFX2
XBUFX2_133 vdd gnd vCheckNodes_3.CAN_FIRE_RL_rlProcessIteration vCheckNodes_3.CAN_FIRE_RL_rlProcessIteration_bF$buf1 BUFX2
XBUFX2_134 vdd gnd vCheckNodes_3.CAN_FIRE_RL_rlProcessIteration vCheckNodes_3.CAN_FIRE_RL_rlProcessIteration_bF$buf0 BUFX2
XNAND2X1_1 vdd _1_ gnd vCheckNodes_0$RDY_b2c_0_put vBitNodes_0$RDY_b2c_get NAND2X1
XNAND2X1_2 vdd _2_ gnd vCheckNodes_6$RDY_b2c_0_put vCheckNodes_4$RDY_b2c_0_put NAND2X1
XNOR2X1_1 vdd _2_ gnd CAN_FIRE_RL_rlConnect _1_ NOR2X1
XNAND2X1_3 vdd _3_ gnd vCheckNodes_0$RDY_b2c_1_put vBitNodes_1$RDY_b2c_get NAND2X1
XNAND2X1_4 vdd _4_ gnd vCheckNodes_5$RDY_b2c_0_put vCheckNodes_1$RDY_b2c_0_put NAND2X1
XNOR2X1_2 vdd _4_ gnd CAN_FIRE_RL_rlConnect_1 _3_ NOR2X1
XNAND2X1_5 vdd _5_ gnd vCheckNodes_1$RDY_b2c_1_put vBitNodes_2$RDY_b2c_get NAND2X1
XNAND2X1_6 vdd _6_ gnd vCheckNodes_2$RDY_b2c_0_put vCheckNodes_6$RDY_b2c_1_put NAND2X1
XNOR2X1_3 vdd _6_ gnd CAN_FIRE_RL_rlConnect_2 _5_ NOR2X1
XNAND2X1_7 vdd _7_ gnd vCheckNodes_0$RDY_b2c_2_put vBitNodes_3$RDY_b2c_get NAND2X1
XNAND2X1_8 vdd _8_ gnd vCheckNodes_3$RDY_b2c_0_put vCheckNodes_2$RDY_b2c_1_put NAND2X1
XNOR2X1_4 vdd _8_ gnd CAN_FIRE_RL_rlConnect_3 _7_ NOR2X1
XNAND2X1_9 vdd _9_ gnd vCheckNodes_1$RDY_b2c_2_put vBitNodes_4$RDY_b2c_get NAND2X1
XNAND2X1_10 vdd _10_ gnd vCheckNodes_4$RDY_b2c_1_put vCheckNodes_3$RDY_b2c_1_put NAND2X1
XNOR2X1_5 vdd _10_ gnd CAN_FIRE_RL_rlConnect_4 _9_ NOR2X1
XNAND2X1_11 vdd _11_ gnd vCheckNodes_2$RDY_b2c_2_put vBitNodes_5$RDY_b2c_get NAND2X1
XNAND2X1_12 vdd _12_ gnd vCheckNodes_5$RDY_b2c_1_put vCheckNodes_4$RDY_b2c_2_put NAND2X1
XNOR2X1_6 vdd _12_ gnd CAN_FIRE_RL_rlConnect_5 _11_ NOR2X1
XNAND2X1_13 vdd _13_ gnd vCheckNodes_3$RDY_b2c_2_put vBitNodes_6$RDY_b2c_get NAND2X1
XNAND2X1_14 vdd _14_ gnd vCheckNodes_6$RDY_b2c_2_put vCheckNodes_5$RDY_b2c_2_put NAND2X1
XNOR2X1_7 vdd _14_ gnd CAN_FIRE_RL_rlConnect_6 _13_ NOR2X1
XAND2X2_1 vdd gnd vCheckNodes_0$RDY_c2b_0_get vBitNodes_0$RDY_c2b_0_put CAN_FIRE_RL_mkConnectionGetPut AND2X2
XAND2X2_2 vdd gnd vCheckNodes_0$RDY_c2b_1_get vBitNodes_1$RDY_c2b_0_put CAN_FIRE_RL_mkConnectionGetPut_1 AND2X2
XAND2X2_3 vdd gnd vCheckNodes_0$RDY_c2b_2_get vBitNodes_3$RDY_c2b_0_put CAN_FIRE_RL_mkConnectionGetPut_2 AND2X2
XAND2X2_4 vdd gnd vCheckNodes_1$RDY_c2b_0_get vBitNodes_1$RDY_c2b_1_put CAN_FIRE_RL_mkConnectionGetPut_3 AND2X2
XAND2X2_5 vdd gnd vCheckNodes_1$RDY_c2b_1_get vBitNodes_2$RDY_c2b_0_put CAN_FIRE_RL_mkConnectionGetPut_4 AND2X2
XAND2X2_6 vdd gnd vCheckNodes_1$RDY_c2b_2_get vBitNodes_4$RDY_c2b_0_put CAN_FIRE_RL_mkConnectionGetPut_5 AND2X2
XAND2X2_7 vdd gnd vCheckNodes_2$RDY_c2b_0_get vBitNodes_2$RDY_c2b_1_put CAN_FIRE_RL_mkConnectionGetPut_6 AND2X2
XAND2X2_8 vdd gnd vCheckNodes_2$RDY_c2b_1_get vBitNodes_3$RDY_c2b_1_put CAN_FIRE_RL_mkConnectionGetPut_7 AND2X2
XAND2X2_9 vdd gnd vCheckNodes_2$RDY_c2b_2_get vBitNodes_5$RDY_c2b_0_put CAN_FIRE_RL_mkConnectionGetPut_8 AND2X2
XAND2X2_10 vdd gnd vCheckNodes_3$RDY_c2b_0_get vBitNodes_3$RDY_c2b_2_put CAN_FIRE_RL_mkConnectionGetPut_9 AND2X2
XAND2X2_11 vdd gnd vCheckNodes_3$RDY_c2b_1_get vBitNodes_4$RDY_c2b_1_put CAN_FIRE_RL_mkConnectionGetPut_10 AND2X2
XAND2X2_12 vdd gnd vCheckNodes_3$RDY_c2b_2_get vBitNodes_6$RDY_c2b_0_put CAN_FIRE_RL_mkConnectionGetPut_11 AND2X2
XAND2X2_13 vdd gnd vCheckNodes_4$RDY_c2b_0_get vBitNodes_0$RDY_c2b_1_put CAN_FIRE_RL_mkConnectionGetPut_12 AND2X2
XAND2X2_14 vdd gnd vCheckNodes_4$RDY_c2b_1_get vBitNodes_4$RDY_c2b_2_put CAN_FIRE_RL_mkConnectionGetPut_13 AND2X2
XAND2X2_15 vdd gnd vCheckNodes_4$RDY_c2b_2_get vBitNodes_5$RDY_c2b_1_put CAN_FIRE_RL_mkConnectionGetPut_14 AND2X2
XAND2X2_16 vdd gnd vCheckNodes_5$RDY_c2b_0_get vBitNodes_1$RDY_c2b_2_put CAN_FIRE_RL_mkConnectionGetPut_15 AND2X2
XAND2X2_17 vdd gnd vCheckNodes_5$RDY_c2b_1_get vBitNodes_5$RDY_c2b_2_put CAN_FIRE_RL_mkConnectionGetPut_16 AND2X2
XAND2X2_18 vdd gnd vCheckNodes_5$RDY_c2b_2_get vBitNodes_6$RDY_c2b_1_put CAN_FIRE_RL_mkConnectionGetPut_17 AND2X2
XAND2X2_19 vdd gnd vCheckNodes_6$RDY_c2b_0_get vBitNodes_0$RDY_c2b_2_put CAN_FIRE_RL_mkConnectionGetPut_18 AND2X2
XAND2X2_20 vdd gnd vCheckNodes_6$RDY_c2b_1_get vBitNodes_2$RDY_c2b_2_put CAN_FIRE_RL_mkConnectionGetPut_19 AND2X2
XAND2X2_21 vdd gnd vCheckNodes_6$RDY_c2b_2_get vBitNodes_6$RDY_c2b_2_put CAN_FIRE_RL_mkConnectionGetPut_20 AND2X2
XNAND2X1_15 vdd _15_ gnd vBitNodes_2$RDY_codeIn_put vBitNodes_1$RDY_codeIn_put NAND2X1
XNAND2X1_16 vdd _16_ gnd vBitNodes_4$RDY_codeIn_put vBitNodes_3$RDY_codeIn_put NAND2X1
XNOR2X1_8 vdd _16_ gnd _17_ _15_ NOR2X1
XNAND2X1_17 vdd _18_ gnd vBitNodes_6$RDY_codeIn_put vBitNodes_5$RDY_codeIn_put NAND2X1
XINVX1_1 _18_ _19_ vdd gnd INVX1
XNAND3X1_1 vBitNodes_0$RDY_codeIn_put vdd gnd ffI$EMPTY_N rgIdle _20_ NAND3X1
XINVX1_2 _20_ _21_ vdd gnd INVX1
XNAND3X1_2 _21_ vdd gnd _19_ _17_ _22_ NAND3X1
XINVX1_3 _22_ CAN_FIRE_RL_rlPutCodeWordIn vdd gnd INVX1
XNAND2X1_18 vdd _23_ gnd vBitNodes_1$RDY_dataOut_get vBitNodes_0$RDY_dataOut_get NAND2X1
XNAND2X1_19 vdd _24_ gnd vBitNodes_5$RDY_dataOut_get vBitNodes_4$RDY_dataOut_get NAND2X1
XNOR2X1_9 vdd _24_ gnd _25_ _23_ NOR2X1
XINVX1_4 vBitNodes_0$RDY_codeIn_put _26_ vdd gnd INVX1
XNOR2X1_10 vdd _26_ gnd _27_ rgIdle NOR2X1
XNAND3X1_3 _27_ vdd gnd _19_ _25_ _28_ NAND3X1
XNAND2X1_20 vdd _29_ gnd ffO$FULL_N vBitNodes_6$RDY_dataOut_get NAND2X1
XNAND2X1_21 vdd _30_ gnd vBitNodes_3$RDY_dataOut_get vBitNodes_2$RDY_dataOut_get NAND2X1
XNOR2X1_11 vdd _30_ gnd _31_ _29_ NOR2X1
XNAND2X1_22 vdd _32_ gnd _17_ _31_ NAND2X1
XNOR2X1_12 vdd _28_ gnd CAN_FIRE_RL_rlEvaluateOutput _32_ NOR2X1
XINVX1_5 fnCheckDecodedWord___d200 _33_ vdd gnd INVX1
XAND2X2_22 vdd gnd CAN_FIRE_RL_rlEvaluateOutput_bF$buf3 _33_ MUX_rgIdle$write_1__SEL_1 AND2X2
XNAND2X1_23 vdd _34_ gnd fnCheckDecodedWord___d200 CAN_FIRE_RL_rlEvaluateOutput_bF$buf2 NAND2X1
XNAND2X1_24 vdd vBitNodes_0$EN_codeIn_put gnd _22_ _34_ NAND2X1
XINVX1_6 ffI$D_OUT[0] _35_ vdd gnd INVX1
XNOR2X1_13 vdd _30_ gnd _36_ _18_ NOR2X1
XNOR2X1_14 vdd _29_ gnd _37_ _24_ NOR2X1
XNAND2X1_25 vdd _38_ gnd _36_ _37_ NAND2X1
XINVX1_7 _23_ _39_ vdd gnd INVX1
XNAND3X1_4 _27_ vdd gnd _39_ _17_ _40_ NAND3X1
XNOR3X1_1 vdd gnd _38_ _40_ _33_ _41_ NOR3X1
XNOR2X1_15 vdd _40_ gnd _42_ _38_ NOR2X1
XNAND3X1_5 vBitNodes_0$dataOut_get vdd gnd fnCheckDecodedWord___d200 _42_ _43_ NAND3X1
XOAI21X1_1 gnd vdd _35_ _41_ vBitNodes_0$codeIn_put _43_ OAI21X1
XINVX1_8 ffI$D_OUT[1] _44_ vdd gnd INVX1
XNAND3X1_6 vBitNodes_1$dataOut_get vdd gnd fnCheckDecodedWord___d200 _42_ _45_ NAND3X1
XOAI21X1_2 gnd vdd _44_ _41_ vBitNodes_1$codeIn_put _45_ OAI21X1
XINVX1_9 ffI$D_OUT[2] _46_ vdd gnd INVX1
XNAND3X1_7 vBitNodes_2$dataOut_get vdd gnd fnCheckDecodedWord___d200 _42_ _47_ NAND3X1
XOAI21X1_3 gnd vdd _46_ _41_ vBitNodes_2$codeIn_put _47_ OAI21X1
XINVX1_10 ffI$D_OUT[3] _48_ vdd gnd INVX1
XNAND3X1_8 vBitNodes_3$dataOut_get vdd gnd fnCheckDecodedWord___d200 _42_ _49_ NAND3X1
XOAI21X1_4 gnd vdd _48_ _41_ vBitNodes_3$codeIn_put _49_ OAI21X1
XINVX1_11 ffI$D_OUT[4] _50_ vdd gnd INVX1
XNAND3X1_9 vBitNodes_4$dataOut_get vdd gnd fnCheckDecodedWord___d200 _42_ _51_ NAND3X1
XOAI21X1_5 gnd vdd _50_ _41_ vBitNodes_4$codeIn_put _51_ OAI21X1
XINVX1_12 ffI$D_OUT[5] _52_ vdd gnd INVX1
XNAND3X1_10 vBitNodes_5$dataOut_get vdd gnd fnCheckDecodedWord___d200 _42_ _53_ NAND3X1
XOAI21X1_6 gnd vdd _52_ _41_ vBitNodes_5$codeIn_put _53_ OAI21X1
XINVX1_13 ffI$D_OUT[6] _54_ vdd gnd INVX1
XNAND3X1_11 vBitNodes_6$dataOut_get vdd gnd fnCheckDecodedWord___d200 _42_ _55_ NAND3X1
XOAI21X1_7 gnd vdd _54_ _41_ vBitNodes_6$codeIn_put _55_ OAI21X1
XNAND2X1_26 vdd _56_ gnd rgIdle _22_ NAND2X1
XNAND2X1_27 vdd _57_ gnd _33_ _42_ NAND2X1
XNAND3X1_12 _56_ vdd gnd RST_N_bF$buf5 _57_ _0_ NAND3X1
XBUFX2_135 vdd gnd _58_ RDY_request_put BUFX2
XBUFX2_136 vdd gnd _59_ RDY_response_get BUFX2
XBUFX2_137 vdd gnd _60_[0] response_get[0] BUFX2
XBUFX2_138 vdd gnd _60_[1] response_get[1] BUFX2
XBUFX2_139 vdd gnd _60_[2] response_get[2] BUFX2
XBUFX2_140 vdd gnd _60_[3] response_get[3] BUFX2
XBUFX2_141 vdd gnd _60_[4] response_get[4] BUFX2
XBUFX2_142 vdd gnd _60_[5] response_get[5] BUFX2
XBUFX2_143 vdd gnd _60_[6] response_get[6] BUFX2
XDFFPOSX1_1 vdd _0_ gnd rgIdle CLK_bF$buf42 DFFPOSX1
XINVX1_14 RST_N_bF$buf5 _69_ vdd gnd INVX1
XNOR2X1_16 vdd _69_ gnd _70_ gnd NOR2X1
XINVX1_15 EN_request_put _71_ vdd gnd INVX1
XINVX1_16 _58_ _72_ vdd gnd INVX1
XINVX1_17 CAN_FIRE_RL_rlPutCodeWordIn _73_ vdd gnd INVX1
XOAI21X1_8 gnd vdd EN_request_put _73_ _74_ _72_ OAI21X1
XOAI21X1_9 gnd vdd CAN_FIRE_RL_rlPutCodeWordIn _71_ _75_ _74_ OAI21X1
XNAND2X1_28 vdd _76_ gnd EN_request_put _73_ NAND2X1
XOR2X2_1 _77_ ffI$EMPTY_N vdd gnd _76_ OR2X2
XNAND3X1_13 _75_ vdd gnd _70_ _77_ _64_ NAND3X1
XINVX1_18 ffI.data1_reg[0] _78_ vdd gnd INVX1
XINVX1_19 ffI$EMPTY_N _79_ vdd gnd INVX1
XNOR2X1_17 vdd _79_ gnd _80_ _71_ NOR2X1
XNAND2X1_29 vdd _81_ gnd request_put[0] _80_ NAND2X1
XOAI21X1_10 gnd vdd _78_ _80_ _62_[0] _81_ OAI21X1
XINVX1_20 ffI.data1_reg[1] _82_ vdd gnd INVX1
XNAND2X1_30 vdd _83_ gnd request_put[1] _80_ NAND2X1
XOAI21X1_11 gnd vdd _82_ _80_ _62_[1] _83_ OAI21X1
XINVX1_21 ffI.data1_reg[2] _84_ vdd gnd INVX1
XNAND2X1_31 vdd _85_ gnd request_put[2] _80_ NAND2X1
XOAI21X1_12 gnd vdd _84_ _80_ _62_[2] _85_ OAI21X1
XINVX1_22 ffI.data1_reg[3] _86_ vdd gnd INVX1
XNAND2X1_32 vdd _87_ gnd request_put[3] _80_ NAND2X1
XOAI21X1_13 gnd vdd _86_ _80_ _62_[3] _87_ OAI21X1
XINVX1_23 ffI.data1_reg[4] _88_ vdd gnd INVX1
XNAND2X1_33 vdd _89_ gnd request_put[4] _80_ NAND2X1
XOAI21X1_14 gnd vdd _88_ _80_ _62_[4] _89_ OAI21X1
XINVX1_24 ffI.data1_reg[5] _90_ vdd gnd INVX1
XNAND2X1_34 vdd _91_ gnd request_put[5] _80_ NAND2X1
XOAI21X1_15 gnd vdd _90_ _80_ _62_[5] _91_ OAI21X1
XINVX1_25 ffI.data1_reg[6] _92_ vdd gnd INVX1
XNAND2X1_35 vdd _93_ gnd request_put[6] _80_ NAND2X1
XOAI21X1_16 gnd vdd _92_ _80_ _62_[6] _93_ OAI21X1
XNAND2X1_36 vdd _94_ gnd CAN_FIRE_RL_rlPutCodeWordIn _71_ NAND2X1
XAND2X2_23 vdd gnd _76_ _94_ _95_ AND2X2
XOAI21X1_17 gnd vdd _72_ _94_ _96_ _70_ OAI21X1
XAOI21X1_1 gnd vdd _95_ _79_ _63_ _96_ AOI21X1
XAOI21X1_2 gnd vdd _79_ EN_request_put _97_ CAN_FIRE_RL_rlPutCodeWordIn AOI21X1
XNOR2X1_18 vdd _72_ gnd _98_ EN_request_put NOR2X1
XOAI21X1_18 gnd vdd _98_ _97_ _99_ ffI$D_OUT[0] OAI21X1
XNAND3X1_14 CAN_FIRE_RL_rlPutCodeWordIn vdd gnd _58_ EN_request_put _100_ NAND3X1
XOAI21X1_19 gnd vdd _71_ ffI$EMPTY_N _101_ _100_ OAI21X1
XNOR2X1_19 vdd _73_ gnd _102_ _58_ NOR2X1
XAOI22X1_1 gnd vdd request_put[0] _101_ _103_ ffI.data1_reg[0] _102_ AOI22X1
XNAND2X1_37 vdd _61_[0] gnd _99_ _103_ NAND2X1
XOAI21X1_20 gnd vdd _98_ _97_ _104_ ffI$D_OUT[1] OAI21X1
XAOI22X1_2 gnd vdd request_put[1] _101_ _105_ ffI.data1_reg[1] _102_ AOI22X1
XNAND2X1_38 vdd _61_[1] gnd _104_ _105_ NAND2X1
XOAI21X1_21 gnd vdd _98_ _97_ _106_ ffI$D_OUT[2] OAI21X1
XAOI22X1_3 gnd vdd request_put[2] _101_ _107_ ffI.data1_reg[2] _102_ AOI22X1
XNAND2X1_39 vdd _61_[2] gnd _106_ _107_ NAND2X1
XOAI21X1_22 gnd vdd _98_ _97_ _108_ ffI$D_OUT[3] OAI21X1
XAOI22X1_4 gnd vdd request_put[3] _101_ _109_ ffI.data1_reg[3] _102_ AOI22X1
XNAND2X1_40 vdd _61_[3] gnd _108_ _109_ NAND2X1
XOAI21X1_23 gnd vdd _98_ _97_ _110_ ffI$D_OUT[4] OAI21X1
XAOI22X1_5 gnd vdd request_put[4] _101_ _111_ ffI.data1_reg[4] _102_ AOI22X1
XNAND2X1_41 vdd _61_[4] gnd _110_ _111_ NAND2X1
XOAI21X1_24 gnd vdd _98_ _97_ _65_ ffI$D_OUT[5] OAI21X1
XAOI22X1_6 gnd vdd request_put[5] _101_ _66_ ffI.data1_reg[5] _102_ AOI22X1
XNAND2X1_42 vdd _61_[5] gnd _65_ _66_ NAND2X1
XOAI21X1_25 gnd vdd _98_ _97_ _67_ ffI$D_OUT[6] OAI21X1
XAOI22X1_7 gnd vdd request_put[6] _101_ _68_ ffI.data1_reg[6] _102_ AOI22X1
XNAND2X1_43 vdd _61_[6] gnd _67_ _68_ NAND2X1
XDFFPOSX1_2 vdd _63_ gnd ffI$EMPTY_N CLK_bF$buf46 DFFPOSX1
XDFFPOSX1_3 vdd _64_ gnd _58_ CLK_bF$buf46 DFFPOSX1
XDFFPOSX1_4 vdd _62_[0] gnd ffI.data1_reg[0] CLK_bF$buf33 DFFPOSX1
XDFFPOSX1_5 vdd _62_[1] gnd ffI.data1_reg[1] CLK_bF$buf39 DFFPOSX1
XDFFPOSX1_6 vdd _62_[2] gnd ffI.data1_reg[2] CLK_bF$buf33 DFFPOSX1
XDFFPOSX1_7 vdd _62_[3] gnd ffI.data1_reg[3] CLK_bF$buf17 DFFPOSX1
XDFFPOSX1_8 vdd _62_[4] gnd ffI.data1_reg[4] CLK_bF$buf33 DFFPOSX1
XDFFPOSX1_9 vdd _62_[5] gnd ffI.data1_reg[5] CLK_bF$buf33 DFFPOSX1
XDFFPOSX1_10 vdd _62_[6] gnd ffI.data1_reg[6] CLK_bF$buf33 DFFPOSX1
XDFFPOSX1_11 vdd _61_[0] gnd ffI$D_OUT[0] CLK_bF$buf33 DFFPOSX1
XDFFPOSX1_12 vdd _61_[1] gnd ffI$D_OUT[1] CLK_bF$buf17 DFFPOSX1
XDFFPOSX1_13 vdd _61_[2] gnd ffI$D_OUT[2] CLK_bF$buf17 DFFPOSX1
XDFFPOSX1_14 vdd _61_[3] gnd ffI$D_OUT[3] CLK_bF$buf46 DFFPOSX1
XDFFPOSX1_15 vdd _61_[4] gnd ffI$D_OUT[4] CLK_bF$buf17 DFFPOSX1
XDFFPOSX1_16 vdd _61_[5] gnd ffI$D_OUT[5] CLK_bF$buf46 DFFPOSX1
XDFFPOSX1_17 vdd _61_[6] gnd ffI$D_OUT[6] CLK_bF$buf33 DFFPOSX1
XINVX1_26 RST_N_bF$buf4 _120_ vdd gnd INVX1
XNOR2X1_20 vdd _120_ gnd _121_ gnd NOR2X1
XINVX1_27 MUX_rgIdle$write_1__SEL_1 _122_ vdd gnd INVX1
XINVX1_28 ffO$FULL_N _123_ vdd gnd INVX1
XINVX1_29 EN_response_get _124_ vdd gnd INVX1
XOAI21X1_26 gnd vdd MUX_rgIdle$write_1__SEL_1 _124_ _125_ _123_ OAI21X1
XOAI21X1_27 gnd vdd EN_response_get _122_ _126_ _125_ OAI21X1
XNAND2X1_44 vdd _127_ gnd MUX_rgIdle$write_1__SEL_1 _124_ NAND2X1
XOR2X2_2 _128_ _59_ vdd gnd _127_ OR2X2
XNAND3X1_15 _126_ vdd gnd _121_ _128_ _115_ NAND3X1
XINVX1_30 ffO.data1_reg[0] _129_ vdd gnd INVX1
XINVX1_31 _59_ _130_ vdd gnd INVX1
XNOR2X1_21 vdd _130_ gnd _131_ _122_ NOR2X1
XNAND2X1_45 vdd _132_ gnd vBitNodes_0$dataOut_get _131_ NAND2X1
XOAI21X1_28 gnd vdd _129_ _131_ _113_[0] _132_ OAI21X1
XINVX1_32 ffO.data1_reg[1] _133_ vdd gnd INVX1
XNAND2X1_46 vdd _134_ gnd vBitNodes_1$dataOut_get _131_ NAND2X1
XOAI21X1_29 gnd vdd _133_ _131_ _113_[1] _134_ OAI21X1
XINVX1_33 ffO.data1_reg[2] _135_ vdd gnd INVX1
XNAND2X1_47 vdd _136_ gnd vBitNodes_2$dataOut_get _131_ NAND2X1